FoamFile {
        version         1.4;
        format          ascii;

        root            "";
        case            "";
        instance        "constant";
        local           "";

        class           dictionary;
        object          gmtDict;
}

projection "X2i/5.2i";
projection2D XZ;
separateLegend false;
plotBoundaryDots false;
//plotZeroValuePolys false;

FieldsToPlot (
        [none mesh "gray"]
	[none numbered 0]
);

region "-10e3/10e3/0/52e3";
boundaryMarks "5e3/10e3WSen";
