FoamFile {
        version         1.4;
        format          ascii;

        root            "";
        case            "";
        instance        "constant";
        local           "";

        class           dictionary;
        object          gmtDict;
}

projection "X2i/5.2i";
projection2D XZ;
separateLegend false;
plotBoundaryDots false;
//plotZeroValuePolys false;

FieldsToPlot (
        [theta_diff rawValues -0.004 0.004 1e-3 "$GMTU/colours/red_white_blue.cpt"]
        [thetaf_diff rawValues -0.004 0.004 1e-3 "$GMTU/colours/red_white_blue.cpt"]
        [none mesh "gray"]
);

region "-10e3/10e3/0/52e3";
boundaryMarks "5e3/10e3WSen";
