FoamFile
{
    version         1.4;
    format          ascii;

    root            "";
    case            "";
    instance        "constant";
    local           "";

    class           dictionary;
    object          gmtDict;
}

// How to plot
// Compulsory inputs
projection "X18c/18c";
projection2D XZ;

FieldsToPlot
(
    [Uf vectors 1 1 "black"]
);

//region "-80e3/80e3/0/20000";
//annotate "minMax -30e3 -300";
separateLegend false;
