FoamFile
{
    version     2.0;
    format      ascii;
    class       dictionary;
    location    "constant";
    object      velocityFieldDict;
}

maxVelocity		10;
zeroVelocityHeight	7000; // 4000;
maxVelocityHeight	8000; //5000;

type horizontal;
velocityProfileType HorizontalVelocityProfile;
