/*--------------------------------*- C++ -*----------------------------------*\
| =========                 |                                                 |
| \\      /  F ield         | OpenFOAM: The Open Source CFD Toolbox           |
|  \\    /   O peration     | Version:  dev                                   |
|   \\  /    A nd           | Web:      www.OpenFOAM.org                      |
|    \\/     M anipulation  |                                                 |
\*---------------------------------------------------------------------------*/
FoamFile
{
    version     7.0; 
    format      ascii;
    class       dictionary;
    object      earthProperties;
}
// * * * * * * * * * * * * * * * * * * * * * * * * * * * * * * * * * * * * * //

earthRadius earthRadius [0 1 0 0 0] 1;
polarCell false;
maxLonRatio 0;
nLat 10;
nLon 20;
R 1.01;

// ************************************************************************* //
