FoamFile {
    version     2.0;
    format      ascii;
    class       dictionary;
    location    "constant";
    object      velocityFieldDict;
}

type		geodesicSolidBody;
endTime		1.0368e+06;
