FoamFile {
    version     2.0;
    format      ascii;
    class       dictionary;
    location    "system";
    object      fvSchemes;
}

divSchemes {
    default         none;
//    div(phi,T)      Gauss linearUpwind grad(T);
//    div(phi,T_0)    Gauss linearUpwind grad(T_0);
    div(phi,T)      Gauss cubicUpwindCPCFit Cartesian;
    div(phi,T_0)    Gauss cubicUpwindCPCFit Cartesian;
}

gradSchemes {
    default         Gauss linear;
}

laplacianSchemes {
    default         Gauss linear corrected;
}

ddtSchemes {
    default         backward;
}

fluxRequired {
    default         no;
    T;
}
