FoamFile {
    version     2.0;
    format      ascii;
    class       dictionary;
    location    "constant";
    object	setScalarOverOrographyDict;
}

type		schaerRadial3D;
centre      (-0.5 -0.5 0.5);
halfWidth   (0.5 0.5 0.5);
