FoamFile {
    version     2.0;
    format      ascii;
    class       dictionary;
    location    "constant";
    object      velocityFieldDict;
}

type			uniform;
velocity        (1 1 0.5);
