/*---------------------------------------------------------------------------*\
| =========                 |                                                 |
| \\      /  F ield         | OpenFOAM: The Open Source CFD Toolbox           |
|  \\    /   O peration     | Version:  1.4                                   |
|   \\  /    A nd           | Web:      http://www.openfoam.org               |
|    \\/     M anipulation  |                                                 |
\*---------------------------------------------------------------------------*/

FoamFile
{
    version         2.0;
    format          ascii;

    root            "";
    case            "";
    instance        "";
    local           "";

    class           dictionary;
    object          environmentalProperties;
}

// * * * * * * * * * * * * * * * * * * * * * * * * * * * * * * * * * * * * * //

g               g [0 1 -2 0 0 0 0] (0 0 -9.81);
Omega           Omega [0 0 -1 0 0 0 0] (0 0 0);
diffusioneCoefficient diffusionCoeff [0 2 -1 0 0] 0;
Urelax          Urelax  [0 1 -1 0 0] (10 0 0);
nu              nu      [0 2 -1 0 0] 200;

// Settings for setTheta
// Brunt Vailsalla frequency for different layers of atmosphere
BruntVaisallaFreq  1(0.01);
// Extents of the layers (array should be one longer)
zN  2(0 30.0001e3);

// Sponge layer coefficients
nSponges 2;
spongeOnCellCentres true;
spongeCentre0 (0 0 30e3);
spongeLength0 (0 0 10e3);
spongeMax0    0.3;
spongeCentre1 (-50e3 0 0);
spongeLength1 (10e3 0  0);
spongeMax1    0.3;


// ************************************************************************* //
