/*---------------------------------------------------------------------------*\
| =========                 |                                                 |
| \\      /  F ield         | OpenFOAM: The Open Source CFD Toolbox           |
|  \\    /   O peration     | Version:  1.4                                   |
|   \\  /    A nd           | Web:      http://www.openfoam.org               |
|    \\/     M anipulation  |                                                 |
\*---------------------------------------------------------------------------*/

FoamFile
{
    version         2.0;
    format          ascii;

    root            "";
    case            "";
    instance        "";
    local           "";

    class           dictionary;
    object          fvSchemes;
}

// * * * * * * * * * * * * * * * * * * * * * * * * * * * * * * * * * * * * * //

ddtSchemes
{
    default Euler;
}

gradSchemes
{
    default         none;
    curl((streamFunction*(0,0,1))) Gauss linear;
    linearUpwind Gauss linear;
}

divSchemes
{
    default         Gauss upwind;
}

laplacianSchemes
{
    default         none;
    laplacian(streamFunction) Gauss linear uncorrected;
    laplacian(h)              Gauss linear uncorrected;
    laplacian((((deltaT*g)*hf)*sumSigmaf),h) Gauss linear uncorrected;
    laplacian((1|A(U)),p) Gauss linear uncorrected;
}

interpolationSchemes
{
    default            none;
    interpolate(U)     linear;
    interpolate(h)     linear;
    flux((twoOmega^U)) linear;
    flux(convection(phi,U)) linear;
    interpolate((stable.hSigma*stable.u)) linear;
    interpolate((buoyant.hSigma*buoyant.u)) linear;
    interpolate(stable.hSigma) linear;
    interpolate(buoyant.hSigma) linear;
    interpolate(convection(stable.flux,stable.u)) linear;
    interpolate(convection(buoyant.flux,buoyant.u)) linear;
}

snGradSchemes
{
    default         uncorrected;
    snGrad(h)       uncorrected;
    snGrad(p)       uncorrected;
}

fluxRequired
{
    default         no;
    h;
}


// ************************************************************************* //
