/*--------------------------------*- C++ -*----------------------------------*\
| =========                 |                                                 |
| \\      /  F ield         | OpenFOAM: The Open Source CFD Toolbox           |
|  \\    /   O peration     | Version:  3.0.0                                 |
|   \\  /    A nd           | Web:      www.OpenFOAM.org                      |
|    \\/     M anipulation  |                                                 |
\*---------------------------------------------------------------------------*/
FoamFile
{
    version     2.0;
    format      binary;
    class       polyBoundaryMesh;
    location    "constant/polyMesh";
    object      boundary;
}
// * * * * * * * * * * * * * * * * * * * * * * * * * * * * * * * * * * * * * //

5
(
    ground
    {
        type            cyclic;
        inGroups        1(cyclic);
        nFaces          400;
        startFace       319200;
        matchTolerance  0.01;
        transform       unknown;
        neighbourPatch  top;
    }
    top
    {
        type            cyclic;
        inGroups        1(cyclic);
        nFaces          400;
        startFace       319600;
        matchTolerance  0.01;
        transform       unknown;
        neighbourPatch  ground;
    }
    left
    {
        type            cyclic;
        inGroups        1(cyclic);
        nFaces          400;
        startFace       320000;
        matchTolerance  0.01;
        transform       unknown;
        neighbourPatch  right;
    }
    right
    {
        type            cyclic;
        inGroups        1(cyclic);
        nFaces          400;
        startFace       320400;
        matchTolerance  0.01;
        transform       unknown;
        neighbourPatch  left;
    }
    defaultFaces
    {
        type            empty;
        inGroups        1(empty);
        nFaces          320000;
        startFace       320800;
    }
)

// ************************************************************************* //
