FoamFile {
    version     2.0;
    format      ascii;
    class       dictionary;
    location    "constant";
    object      add2dMountainDict;
}

type			btf;
domainHeight		20e3;

mountain
{
	type		schaerExp;
	halfWidth	5e3;
	peakHeight	250;
	wavelength	4e3;
}

