/*--------------------------------*- C++ -*----------------------------------*\
| =========                 |                                                 |
| \\      /  F ield         | OpenFOAM: The Open Source CFD Toolbox           |
|  \\    /   O peration     | Version:  3.0.1                                 |
|   \\  /    A nd           | Web:      www.OpenFOAM.org                      |
|    \\/     M anipulation  |                                                 |
\*---------------------------------------------------------------------------*/
FoamFile
{
    version     2.0;
    format      binary;
    class       polyBoundaryMesh;
    location    "constant/polyMesh";
    object      boundary;
}
// * * * * * * * * * * * * * * * * * * * * * * * * * * * * * * * * * * * * * //

5
(
    inlet
    {
        type            patch;
        nFaces          25;
        startFace       4924;
    }
    outlet
    {
        type            patch;
        nFaces          25;
        startFace       4949;
    }
    ground
    {
        type            wall;
        inGroups        1(wall);
        nFaces          101;
        startFace       4974;
    }
    top
    {
        type            wall;
        inGroups        1(wall);
        nFaces          101;
        startFace       5075;
    }
    frontAndBack
    {
        type            empty;
        inGroups        1(empty);
        nFaces          5050;
        startFace       5176;
    }
)

// ************************************************************************* //
