/*--------------------------------*- C++ -*----------------------------------*\
| =========                 |                                                 |
| \\      /  F ield         | OpenFOAM: The Open Source CFD Toolbox           |
|  \\    /   O peration     | Version:  dev                                   |
|   \\  /    A nd           | Web:      www.OpenFOAM.org                      |
|    \\/     M anipulation  |                                                 |
\*---------------------------------------------------------------------------*/
FoamFile
{
    version     2.0;
    format      ascii;
    class       volScalarField;
    location    "constant";
    object      Exner_init;
}
// * * * * * * * * * * * * * * * * * * * * * * * * * * * * * * * * * * * * * //

dimensions      [0 0 0 0 0 0 0];

internalField   uniform 1;

boundaryField
{
    left
    {
        type            fixedFluxBuoyantExner;
        gradient        nonuniform 0();
        value           nonuniform 0();
    }
    right
    {
        type            fixedFluxBuoyantExner;
        gradient        uniform 0;
        value           uniform 1;
    }
    ground
    {
        type            fixedFluxBuoyantExner;
        gradient        uniform 0;
        value           uniform 1;
    }
    top
    {
        type            fixedValue;
        value           uniform 0.399807;
    }
    frontAndBack
    {
        type            empty;
    }
    procBoundary1to0
    {
        type            processor;
        value           uniform 1;
    }
}


// ************************************************************************* //
