/*--------------------------------*- C++ -*----------------------------------*\
| =========                 |                                                 |
| \\      /  F ield         | OpenFOAM: The Open Source CFD Toolbox           |
|  \\    /   O peration     | Version:  dev                                   |
|   \\  /    A nd           | Web:      www.OpenFOAM.org                      |
|    \\/     M anipulation  |                                                 |
\*---------------------------------------------------------------------------*/
FoamFile
{
    version     2.0;
    format      ascii;
    class       surfaceScalarField;
    location    "constant";
    object      muSponge;
}
// * * * * * * * * * * * * * * * * * * * * * * * * * * * * * * * * * * * * * //

dimensions      [0 0 0 0 0 0 0];

internalField   nonuniform List<scalar> 
4700
(
0
0
0
0
0
0
0
0
0
0
0
0
0
0
0
0
0
0
0
0
0
0
0
0
0
0
0
0
0
0
0
0
0
0
0
0
0
0
0
0
0
0.00184959976012
0
0.0165780477614
0
0.0456722804932
0
0.0884159013875
0
0.14375642064
0
0.210331171002
0
0.28650086117
0
0.370389940581
0
0.459932781686
0
0.552924542563
0
0.647075457437
0
0.740067218314
0
0.829610059419
0
0.91349913883
0
0.989668828998
0
1.05624357936
0
1.11158409861
0
1.15432771951
0
1.18342195224
1.19815040024
0
0
0
0
0
0
0
0
0
0
0
0
0
0
0
0
0
0
0
0
0
0
0
0
0
0
0
0
0
0
0
0
0
0
0
0
0
0
0
0
0
0.00184959976012
0
0.0165780477614
0
0.0456722804932
0
0.0884159013875
0
0.14375642064
0
0.210331171002
0
0.28650086117
0
0.370389940581
0
0.459932781686
0
0.552924542563
0
0.647075457437
0
0.740067218314
0
0.829610059419
0
0.91349913883
0
0.989668828998
0
1.05624357936
0
1.11158409861
0
1.15432771951
0
1.18342195224
1.19815040024
0
0
0
0
0
0
0
0
0
0
0
0
0
0
0
0
0
0
0
0
0
0
0
0
0
0
0
0
0
0
0
0
0
0
0
0
0
0
0
0
0
0.00184959976012
0
0.0165780477614
0
0.0456722804932
0
0.0884159013875
0
0.14375642064
0
0.210331171002
0
0.28650086117
0
0.370389940581
0
0.459932781686
0
0.552924542563
0
0.647075457437
0
0.740067218314
0
0.829610059419
0
0.91349913883
0
0.989668828998
0
1.05624357936
0
1.11158409861
0
1.15432771951
0
1.18342195224
1.19815040024
0
0
0
0
0
0
0
0
0
0
0
0
0
0
0
0
0
0
0
0
0
0
0
0
0
0
0
0
0
0
0
0
0
0
0
0
0
0
0
0
0
0.00184959976012
0
0.0165780477614
0
0.0456722804932
0
0.0884159013875
0
0.14375642064
0
0.210331171002
0
0.28650086117
0
0.370389940581
0
0.459932781686
0
0.552924542563
0
0.647075457437
0
0.740067218314
0
0.829610059419
0
0.91349913883
0
0.989668828998
0
1.05624357936
0
1.11158409861
0
1.15432771951
0
1.18342195224
1.19815040024
0
0
0
0
0
0
0
0
0
0
0
0
0
0
0
0
0
0
0
0
0
0
0
0
0
0
0
0
0
0
0
0
0
0
0
0
0
0
0
0
0
0.00184959976012
0
0.0165780477614
0
0.0456722804932
0
0.0884159013875
0
0.14375642064
0
0.210331171002
0
0.28650086117
0
0.370389940581
0
0.459932781686
0
0.552924542563
0
0.647075457437
0
0.740067218314
0
0.829610059419
0
0.91349913883
0
0.989668828998
0
1.05624357936
0
1.11158409861
0
1.15432771951
0
1.18342195224
1.19815040024
0
0
0
0
0
0
0
0
0
0
0
0
0
0
0
0
0
0
0
0
0
0
0
0
0
0
0
0
0
0
0
0
0
0
0
0
0
0
0
0
0
0.00184959976012
0
0.0165780477614
0
0.0456722804932
0
0.0884159013875
0
0.14375642064
0
0.210331171002
0
0.28650086117
0
0.370389940581
0
0.459932781686
0
0.552924542563
0
0.647075457437
0
0.740067218314
0
0.829610059419
0
0.91349913883
0
0.989668828998
0
1.05624357936
0
1.11158409861
0
1.15432771951
0
1.18342195224
1.19815040024
0
0
0
0
0
0
0
0
0
0
0
0
0
0
0
0
0
0
0
0
0
0
0
0
0
0
0
0
0
0
0
0
0
0
0
0
0
0
0
0
0
0.00184959976012
0
0.0165780477614
0
0.0456722804932
0
0.0884159013875
0
0.14375642064
0
0.210331171002
0
0.28650086117
0
0.370389940581
0
0.459932781686
0
0.552924542563
0
0.647075457437
0
0.740067218314
0
0.829610059419
0
0.91349913883
0
0.989668828998
0
1.05624357936
0
1.11158409861
0
1.15432771951
0
1.18342195224
1.19815040024
0
0
0
0
0
0
0
0
0
0
0
0
0
0
0
0
0
0
0
0
0
0
0
0
0
0
0
0
0
0
0
0
0
0
0
0
0
0
0
0
0
0.00184959976012
0
0.0165780477614
0
0.0456722804932
0
0.0884159013875
0
0.14375642064
0
0.210331171002
0
0.28650086117
0
0.370389940581
0
0.459932781686
0
0.552924542563
0
0.647075457437
0
0.740067218314
0
0.829610059419
0
0.91349913883
0
0.989668828998
0
1.05624357936
0
1.11158409861
0
1.15432771951
0
1.18342195224
1.19815040024
0
0
0
0
0
0
0
0
0
0
0
0
0
0
0
0
0
0
0
0
0
0
0
0
0
0
0
0
0
0
0
0
0
0
0
0
0
0
0
0
0
0.00184959976012
0
0.0165780477614
0
0.0456722804932
0
0.0884159013875
0
0.14375642064
0
0.210331171002
0
0.28650086117
0
0.370389940581
0
0.459932781686
0
0.552924542563
0
0.647075457437
0
0.740067218314
0
0.829610059419
0
0.91349913883
0
0.989668828998
0
1.05624357936
0
1.11158409861
0
1.15432771951
0
1.18342195224
1.19815040024
0
0
0
0
0
0
0
0
0
0
0
0
0
0
0
0
0
0
0
0
0
0
0
0
0
0
0
0
0
0
0
0
0
0
0
0
0
0
0
0
0
0.00184959976012
0
0.0165780477614
0
0.0456722804932
0
0.0884159013875
0
0.14375642064
0
0.210331171002
0
0.28650086117
0
0.370389940581
0
0.459932781686
0
0.552924542563
0
0.647075457437
0
0.740067218314
0
0.829610059419
0
0.91349913883
0
0.989668828998
0
1.05624357936
0
1.11158409861
0
1.15432771951
0
1.18342195224
1.19815040024
0
0
0
0
0
0
0
0
0
0
0
0
0
0
0
0
0
0
0
0
0
0
0
0
0
0
0
0
0
0
0
0
0
0
0
0
0
0
0
0
0
0.00184959976012
0
0.0165780477614
0
0.0456722804932
0
0.0884159013875
0
0.14375642064
0
0.210331171002
0
0.28650086117
0
0.370389940581
0
0.459932781686
0
0.552924542563
0
0.647075457437
0
0.740067218314
0
0.829610059419
0
0.91349913883
0
0.989668828998
0
1.05624357936
0
1.11158409861
0
1.15432771951
0
1.18342195224
1.19815040024
0
0
0
0
0
0
0
0
0
0
0
0
0
0
0
0
0
0
0
0
0
0
0
0
0
0
0
0
0
0
0
0
0
0
0
0
0
0
0
0
0
0.00184959976012
0
0.0165780477614
0
0.0456722804932
0
0.0884159013875
0
0.14375642064
0
0.210331171002
0
0.28650086117
0
0.370389940581
0
0.459932781686
0
0.552924542563
0
0.647075457437
0
0.740067218314
0
0.829610059419
0
0.91349913883
0
0.989668828998
0
1.05624357936
0
1.11158409861
0
1.15432771951
0
1.18342195224
1.19815040024
0
0
0
0
0
0
0
0
0
0
0
0
0
0
0
0
0
0
0
0
0
0
0
0
0
0
0
0
0
0
0
0
0
0
0
0
0
0
0
0
0
0.00184959976012
0
0.0165780477614
0
0.0456722804932
0
0.0884159013875
0
0.14375642064
0
0.210331171002
0
0.28650086117
0
0.370389940581
0
0.459932781686
0
0.552924542563
0
0.647075457437
0
0.740067218314
0
0.829610059419
0
0.91349913883
0
0.989668828998
0
1.05624357936
0
1.11158409861
0
1.15432771951
0
1.18342195224
1.19815040024
0
0
0
0
0
0
0
0
0
0
0
0
0
0
0
0
0
0
0
0
0
0
0
0
0
0
0
0
0
0
0
0
0
0
0
0
0
0
0
0
0
0.00184959976012
0
0.0165780477614
0
0.0456722804932
0
0.0884159013875
0
0.14375642064
0
0.210331171002
0
0.28650086117
0
0.370389940581
0
0.459932781686
0
0.552924542563
0
0.647075457437
0
0.740067218314
0
0.829610059419
0
0.91349913883
0
0.989668828998
0
1.05624357936
0
1.11158409861
0
1.15432771951
0
1.18342195224
1.19815040024
0
0
0
0
0
0
0
0
0
0
0
0
0
0
0
0
0
0
0
0
0
0
0
0
0
0
0
0
0
0
0
0
0
0
0
0
0
0
0
0
0
0.00184959976012
0
0.0165780477614
0
0.0456722804932
0
0.0884159013875
0
0.14375642064
0
0.210331171002
0
0.28650086117
0
0.370389940581
0
0.459932781686
0
0.552924542563
0
0.647075457437
0
0.740067218314
0
0.829610059419
0
0.91349913883
0
0.989668828998
0
1.05624357936
0
1.11158409861
0
1.15432771951
0
1.18342195224
1.19815040024
0
0
0
0
0
0
0
0
0
0
0
0
0
0
0
0
0
0
0
0
0
0
0
0
0
0
0
0
0
0
0
0
0
0
0
0
0
0
0
0
0
0.00184959976012
0
0.0165780477614
0
0.0456722804932
0
0.0884159013875
0
0.14375642064
0
0.210331171002
0
0.28650086117
0
0.370389940581
0
0.459932781686
0
0.552924542563
0
0.647075457437
0
0.740067218314
0
0.829610059419
0
0.91349913883
0
0.989668828998
0
1.05624357936
0
1.11158409861
0
1.15432771951
0
1.18342195224
1.19815040024
0
0
0
0
0
0
0
0
0
0
0
0
0
0
0
0
0
0
0
0
0
0
0
0
0
0
0
0
0
0
0
0
0
0
0
0
0
0
0
0
0
0.00184959976012
0
0.0165780477614
0
0.0456722804932
0
0.0884159013875
0
0.14375642064
0
0.210331171002
0
0.28650086117
0
0.370389940581
0
0.459932781686
0
0.552924542563
0
0.647075457437
0
0.740067218314
0
0.829610059419
0
0.91349913883
0
0.989668828998
0
1.05624357936
0
1.11158409861
0
1.15432771951
0
1.18342195224
1.19815040024
0
0
0
0
0
0
0
0
0
0
0
0
0
0
0
0
0
0
0
0
0
0
0
0
0
0
0
0
0
0
0
0
0
0
0
0
0
0
0
0
0
0.00184959976012
0
0.0165780477614
0
0.0456722804932
0
0.0884159013875
0
0.14375642064
0
0.210331171002
0
0.28650086117
0
0.370389940581
0
0.459932781686
0
0.552924542563
0
0.647075457437
0
0.740067218314
0
0.829610059419
0
0.91349913883
0
0.989668828998
0
1.05624357936
0
1.11158409861
0
1.15432771951
0
1.18342195224
1.19815040024
0
0
0
0
0
0
0
0
0
0
0
0
0
0
0
0
0
0
0
0
0
0
0
0
0
0
0
0
0
0
0
0
0
0
0
0
0
0
0
0
0
0.00184959976012
0
0.0165780477614
0
0.0456722804932
0
0.0884159013875
0
0.14375642064
0
0.210331171002
0
0.28650086117
0
0.370389940581
0
0.459932781686
0
0.552924542563
0
0.647075457437
0
0.740067218314
0
0.829610059419
0
0.91349913883
0
0.989668828998
0
1.05624357936
0
1.11158409861
0
1.15432771951
0
1.18342195224
1.19815040024
0
0
0
0
0
0
0
0
0
0
0
0
0
0
0
0
0
0
0
0
0
0
0
0
0
0
0
0
0
0
0
0
0
0
0
0
0
0
0
0
0
0.00184959976012
0
0.0165780477614
0
0.0456722804932
0
0.0884159013875
0
0.14375642064
0
0.210331171002
0
0.28650086117
0
0.370389940581
0
0.459932781686
0
0.552924542563
0
0.647075457437
0
0.740067218314
0
0.829610059419
0
0.91349913883
0
0.989668828998
0
1.05624357936
0
1.11158409861
0
1.15432771951
0
1.18342195224
1.19815040024
0
0
0
0
0
0
0
0
0
0
0
0
0
0
0
0
0
0
0
0
0
0
0
0
0
0
0
0
0
0
0
0
0
0
0
0
0
0
0
0
0
0.00184959976012
0
0.0165780477614
0
0.0456722804932
0
0.0884159013875
0
0.14375642064
0
0.210331171002
0
0.28650086117
0
0.370389940581
0
0.459932781686
0
0.552924542563
0
0.647075457437
0
0.740067218314
0
0.829610059419
0
0.91349913883
0
0.989668828998
0
1.05624357936
0
1.11158409861
0
1.15432771951
0
1.18342195224
1.19815040024
0
0
0
0
0
0
0
0
0
0
0
0
0
0
0
0
0
0
0
0
0
0
0
0
0
0
0
0
0
0
0
0
0
0
0
0
0
0
0
0
0
0.00184959976012
0
0.0165780477614
0
0.0456722804932
0
0.0884159013875
0
0.14375642064
0
0.210331171002
0
0.28650086117
0
0.370389940581
0
0.459932781686
0
0.552924542563
0
0.647075457437
0
0.740067218314
0
0.829610059419
0
0.91349913883
0
0.989668828998
0
1.05624357936
0
1.11158409861
0
1.15432771951
0
1.18342195224
1.19815040024
0
0
0
0
0
0
0
0
0
0
0
0
0
0
0
0
0
0
0
0
0
0
0
0
0
0
0
0
0
0
0
0
0
0
0
0
0
0
0
0
0
0.00184959976012
0
0.0165780477614
0
0.0456722804932
0
0.0884159013875
0
0.14375642064
0
0.210331171002
0
0.28650086117
0
0.370389940581
0
0.459932781686
0
0.552924542563
0
0.647075457437
0
0.740067218314
0
0.829610059419
0
0.91349913883
0
0.989668828998
0
1.05624357936
0
1.11158409861
0
1.15432771951
0
1.18342195224
1.19815040024
0
0
0
0
0
0
0
0
0
0
0
0
0
0
0
0
0
0
0
0
0
0
0
0
0
0
0
0
0
0
0
0
0
0
0
0
0
0
0
0
0
0.00184959976012
0
0.0165780477614
0
0.0456722804932
0
0.0884159013875
0
0.14375642064
0
0.210331171002
0
0.28650086117
0
0.370389940581
0
0.459932781686
0
0.552924542563
0
0.647075457437
0
0.740067218314
0
0.829610059419
0
0.91349913883
0
0.989668828998
0
1.05624357936
0
1.11158409861
0
1.15432771951
0
1.18342195224
1.19815040024
0
0
0
0
0
0
0
0
0
0
0
0
0
0
0
0
0
0
0
0
0
0
0
0
0
0
0
0
0
0
0
0
0
0
0
0
0
0
0
0
0
0.00184959976012
0
0.0165780477614
0
0.0456722804932
0
0.0884159013875
0
0.14375642064
0
0.210331171002
0
0.28650086117
0
0.370389940581
0
0.459932781686
0
0.552924542563
0
0.647075457437
0
0.740067218314
0
0.829610059419
0
0.91349913883
0
0.989668828998
0
1.05624357936
0
1.11158409861
0
1.15432771951
0
1.18342195224
1.19815040024
0
0
0
0
0
0
0
0
0
0
0
0
0
0
0
0
0
0
0
0
0
0
0
0
0
0
0
0
0
0
0
0
0
0
0
0
0
0
0
0
0
0.00184959976012
0
0.0165780477614
0
0.0456722804932
0
0.0884159013875
0
0.14375642064
0
0.210331171002
0
0.28650086117
0
0.370389940581
0
0.459932781686
0
0.552924542563
0
0.647075457437
0
0.740067218314
0
0.829610059419
0
0.91349913883
0
0.989668828998
0
1.05624357936
0
1.11158409861
0
1.15432771951
0
1.18342195224
1.19815040024
0
0
0
0
0
0
0
0
0
0
0
0
0
0
0
0
0
0
0
0
0
0
0
0
0
0
0
0
0
0
0
0
0
0
0
0
0
0
0
0
0
0.00184959976012
0
0.0165780477614
0
0.0456722804932
0
0.0884159013875
0
0.14375642064
0
0.210331171002
0
0.28650086117
0
0.370389940581
0
0.459932781686
0
0.552924542563
0
0.647075457437
0
0.740067218314
0
0.829610059419
0
0.91349913883
0
0.989668828998
0
1.05624357936
0
1.11158409861
0
1.15432771951
0
1.18342195224
1.19815040024
0
0
0
0
0
0
0
0
0
0
0
0
0
0
0
0
0
0
0
0
0
0
0
0
0
0
0
0
0
0
0
0
0
0
0
0
0
0
0
0
0
0.00184959976012
0
0.0165780477614
0
0.0456722804932
0
0.0884159013875
0
0.14375642064
0
0.210331171002
0
0.28650086117
0
0.370389940581
0
0.459932781686
0
0.552924542563
0
0.647075457437
0
0.740067218314
0
0.829610059419
0
0.91349913883
0
0.989668828998
0
1.05624357936
0
1.11158409861
0
1.15432771951
0
1.18342195224
1.19815040024
0
0
0
0
0
0
0
0
0
0
0
0
0
0
0
0
0
0
0
0
0
0
0
0
0
0
0
0
0
0
0
0
0
0
0
0
0
0
0
0
0
0.00184959976012
0
0.0165780477614
0
0.0456722804932
0
0.0884159013875
0
0.14375642064
0
0.210331171002
0
0.28650086117
0
0.370389940581
0
0.459932781686
0
0.552924542563
0
0.647075457437
0
0.740067218314
0
0.829610059419
0
0.91349913883
0
0.989668828998
0
1.05624357936
0
1.11158409861
0
1.15432771951
0
1.18342195224
1.19815040024
0
0
0
0
0
0
0
0
0
0
0
0
0
0
0
0
0
0
0
0
0
0
0
0
0
0
0
0
0
0
0
0
0
0
0
0
0
0
0
0
0
0.00184959976012
0
0.0165780477614
0
0.0456722804932
0
0.0884159013875
0
0.14375642064
0
0.210331171002
0
0.28650086117
0
0.370389940581
0
0.459932781686
0
0.552924542563
0
0.647075457437
0
0.740067218314
0
0.829610059419
0
0.91349913883
0
0.989668828998
0
1.05624357936
0
1.11158409861
0
1.15432771951
0
1.18342195224
1.19815040024
0
0
0
0
0
0
0
0
0
0
0
0
0
0
0
0
0
0
0
0
0
0
0
0
0
0
0
0
0
0
0
0
0
0
0
0
0
0
0
0
0
0.00184959976012
0
0.0165780477614
0
0.0456722804932
0
0.0884159013875
0
0.14375642064
0
0.210331171002
0
0.28650086117
0
0.370389940581
0
0.459932781686
0
0.552924542563
0
0.647075457437
0
0.740067218314
0
0.829610059419
0
0.91349913883
0
0.989668828998
0
1.05624357936
0
1.11158409861
0
1.15432771951
0
1.18342195224
1.19815040024
0
0
0
0
0
0
0
0
0
0
0
0
0
0
0
0
0
0
0
0
0
0
0
0
0
0
0
0
0
0
0
0
0
0
0
0
0
0
0
0
0
0.00184959976012
0
0.0165780477614
0
0.0456722804932
0
0.0884159013875
0
0.14375642064
0
0.210331171002
0
0.28650086117
0
0.370389940581
0
0.459932781686
0
0.552924542563
0
0.647075457437
0
0.740067218314
0
0.829610059419
0
0.91349913883
0
0.989668828998
0
1.05624357936
0
1.11158409861
0
1.15432771951
0
1.18342195224
1.19815040024
0
0
0
0
0
0
0
0
0
0
0
0
0
0
0
0
0
0
0
0
0
0
0
0
0
0
0
0
0
0
0
0
0
0
0
0
0
0
0
0
0
0.00184959976012
0
0.0165780477614
0
0.0456722804932
0
0.0884159013875
0
0.14375642064
0
0.210331171002
0
0.28650086117
0
0.370389940581
0
0.459932781686
0
0.552924542563
0
0.647075457437
0
0.740067218314
0
0.829610059419
0
0.91349913883
0
0.989668828998
0
1.05624357936
0
1.11158409861
0
1.15432771951
0
1.18342195224
1.19815040024
0
0
0
0
0
0
0
0
0
0
0
0
0
0
0
0
0
0
0
0
0
0
0
0
0
0
0
0
0
0
0
0
0
0
0
0
0
0
0
0
0
0.00184959976012
0
0.0165780477614
0
0.0456722804932
0
0.0884159013875
0
0.14375642064
0
0.210331171002
0
0.28650086117
0
0.370389940581
0
0.459932781686
0
0.552924542563
0
0.647075457437
0
0.740067218314
0
0.829610059419
0
0.91349913883
0
0.989668828998
0
1.05624357936
0
1.11158409861
0
1.15432771951
0
1.18342195224
1.19815040024
0
0
0
0
0
0
0
0
0
0
0
0
0
0
0
0
0
0
0
0
0
0
0
0
0
0
0
0
0
0
0
0
0
0
0
0
0
0
0
0
0
0.00184959976012
0
0.0165780477614
0
0.0456722804932
0
0.0884159013875
0
0.14375642064
0
0.210331171002
0
0.28650086117
0
0.370389940581
0
0.459932781686
0
0.552924542563
0
0.647075457437
0
0.740067218314
0
0.829610059419
0
0.91349913883
0
0.989668828998
0
1.05624357936
0
1.11158409861
0
1.15432771951
0
1.18342195224
1.19815040024
0
0
0
0
0
0
0
0
0
0
0
0
0
0
0
0
0
0
0
0
0
0
0
0
0
0
0
0
0
0
0
0
0
0
0
0
0
0
0
0
0
0.00184959976012
0
0.0165780477614
0
0.0456722804932
0
0.0884159013875
0
0.14375642064
0
0.210331171002
0
0.28650086117
0
0.370389940581
0
0.459932781686
0
0.552924542563
0
0.647075457437
0
0.740067218314
0
0.829610059419
0
0.91349913883
0
0.989668828998
0
1.05624357936
0
1.11158409861
0
1.15432771951
0
1.18342195224
1.19815040024
0
0
0
0
0
0
0
0
0
0
0
0
0
0
0
0
0
0
0
0
0
0
0
0
0
0
0
0
0
0
0
0
0
0
0
0
0
0
0
0
0
0.00184959976012
0
0.0165780477614
0
0.0456722804932
0
0.0884159013875
0
0.14375642064
0
0.210331171002
0
0.28650086117
0
0.370389940581
0
0.459932781686
0
0.552924542563
0
0.647075457437
0
0.740067218314
0
0.829610059419
0
0.91349913883
0
0.989668828998
0
1.05624357936
0
1.11158409861
0
1.15432771951
0
1.18342195224
1.19815040024
0
0
0
0
0
0
0
0
0
0
0
0
0
0
0
0
0
0
0
0
0
0
0
0
0
0
0
0
0
0
0
0
0
0
0
0
0
0
0
0
0
0.00184959976012
0
0.0165780477614
0
0.0456722804932
0
0.0884159013875
0
0.14375642064
0
0.210331171002
0
0.28650086117
0
0.370389940581
0
0.459932781686
0
0.552924542563
0
0.647075457437
0
0.740067218314
0
0.829610059419
0
0.91349913883
0
0.989668828998
0
1.05624357936
0
1.11158409861
0
1.15432771951
0
1.18342195224
1.19815040024
0
0
0
0
0
0
0
0
0
0
0
0
0
0
0
0
0
0
0
0
0
0
0
0
0
0
0
0
0
0
0
0
0
0
0
0
0
0
0
0
0
0.00184959976012
0
0.0165780477614
0
0.0456722804932
0
0.0884159013875
0
0.14375642064
0
0.210331171002
0
0.28650086117
0
0.370389940581
0
0.459932781686
0
0.552924542563
0
0.647075457437
0
0.740067218314
0
0.829610059419
0
0.91349913883
0
0.989668828998
0
1.05624357936
0
1.11158409861
0
1.15432771951
0
1.18342195224
1.19815040024
0
0
0
0
0
0
0
0
0
0
0
0
0
0
0
0
0
0
0
0
0
0
0
0
0
0
0
0
0
0
0
0
0
0
0
0
0
0
0
0
0
0.00184959976012
0
0.0165780477614
0
0.0456722804932
0
0.0884159013875
0
0.14375642064
0
0.210331171002
0
0.28650086117
0
0.370389940581
0
0.459932781686
0
0.552924542563
0
0.647075457437
0
0.740067218314
0
0.829610059419
0
0.91349913883
0
0.989668828998
0
1.05624357936
0
1.11158409861
0
1.15432771951
0
1.18342195224
1.19815040024
0
0.00738684820911
0
0.00738684820911
0
0.00738684820911
0
0.00738684820911
0
0.00738684820911
0
0.00738684820911
0
0.00738684820911
0
0.00738684820911
0
0.00738684820911
0
0.00738684820911
0
0.00738684820911
0
0.00738684820911
0
0.00738684820911
0
0.00738684820911
0
0.00738684820911
0
0.00738684820911
0
0.00738684820911
0
0.00738684820911
0
0.00738684820911
0
0.00738684820911
0
0.00923644796924
0
0.0239648959705
0
0.0530591287023
0
0.0958027495967
0
0.151143268849
0
0.217718019211
0
0.29388770938
0
0.37777678879
0
0.467319629896
0
0.560311390772
0
0.654462305646
0
0.747454066523
0
0.836996907628
0
0.920885987039
0
0.997055677207
0
1.06363042757
0
1.11897094682
0
1.16171456772
0
1.19080880045
1.20553724845
0
0.0293655077482
0
0.0293655077482
0
0.0293655077482
0
0.0293655077482
0
0.0293655077482
0
0.0293655077482
0
0.0293655077482
0
0.0293655077482
0
0.0293655077482
0
0.0293655077482
0
0.0293655077482
0
0.0293655077482
0
0.0293655077482
0
0.0293655077482
0
0.0293655077482
0
0.0293655077482
0
0.0293655077482
0
0.0293655077482
0
0.0293655077482
0
0.0293655077482
0
0.0312151075084
0
0.0459435555096
0
0.0750377882415
0
0.117781409136
0
0.173121928388
0
0.23969667875
0
0.315866368919
0
0.399755448329
0
0.489298289435
0
0.582290050312
0
0.676440965185
0
0.769432726062
0
0.858975567167
0
0.942864646578
0
1.01903433675
0
1.08560908711
0
1.14094960636
0
1.18369322726
0
1.21278745999
1.22751590799
0
0.0653948018779
0
0.0653948018779
0
0.0653948018779
0
0.0653948018779
0
0.0653948018779
0
0.0653948018779
0
0.0653948018779
0
0.0653948018779
0
0.0653948018779
0
0.0653948018779
0
0.0653948018779
0
0.0653948018779
0
0.0653948018779
0
0.0653948018779
0
0.0653948018779
0
0.0653948018779
0
0.0653948018779
0
0.0653948018779
0
0.0653948018779
0
0.0653948018779
0
0.067244401638
0
0.0819728496392
0
0.111067082371
0
0.153810703265
0
0.209151222518
0
0.27572597288
0
0.351895663048
0
0.435784742459
0
0.525327583564
0
0.618319344441
0
0.712470259315
0
0.805462020191
0
0.895004861297
0
0.978893940707
0
1.05506363088
0
1.12163838124
0
1.17697890049
0
1.21972252138
0
1.24881675412
1.26354520212
0
0.114587587509
0
0.114587587509
0
0.114587587509
0
0.114587587509
0
0.114587587509
0
0.114587587509
0
0.114587587509
0
0.114587587509
0
0.114587587509
0
0.114587587509
0
0.114587587509
0
0.114587587509
0
0.114587587509
0
0.114587587509
0
0.114587587509
0
0.114587587509
0
0.114587587509
0
0.114587587509
0
0.114587587509
0
0.114587587509
0
0.116437187269
0
0.13116563527
0
0.160259868002
0
0.203003488896
0
0.258344008149
0
0.32491875851
0
0.401088448679
0
0.48497752809
0
0.574520369195
0
0.667512130072
0
0.761663044945
0
0.854654805822
0
0.944197646928
0
1.02808672634
0
1.10425641651
0
1.17083116687
0
1.22617168612
0
1.26891530702
0
1.29800953975
1.31273798775
0
0.175732599172
0
0.175732599172
0
0.175732599172
0
0.175732599172
0
0.175732599172
0
0.175732599172
0
0.175732599172
0
0.175732599172
0
0.175732599172
0
0.175732599172
0
0.175732599172
0
0.175732599172
0
0.175732599172
0
0.175732599172
0
0.175732599172
0
0.175732599172
0
0.175732599172
0
0.175732599172
0
0.175732599172
0
0.175732599172
0
0.177582198932
0
0.192310646934
0
0.221404879666
0
0.26414850056
0
0.319489019812
0
0.386063770174
0
0.462233460343
0
0.546122539753
0
0.635665380859
0
0.728657141736
0
0.822808056609
0
0.915799817486
0
1.00534265859
0
1.089231738
0
1.16540142817
0
1.23197617853
0
1.28731669778
0
1.33006031868
0
1.35915455141
1.37388299941
0
0.247324273803
0
0.247324273803
0
0.247324273803
0
0.247324273803
0
0.247324273803
0
0.247324273803
0
0.247324273803
0
0.247324273803
0
0.247324273803
0
0.247324273803
0
0.247324273803
0
0.247324273803
0
0.247324273803
0
0.247324273803
0
0.247324273803
0
0.247324273803
0
0.247324273803
0
0.247324273803
0
0.247324273803
0
0.247324273803
0
0.249173873563
0
0.263902321564
0
0.292996554296
0
0.33574017519
0
0.391080694443
0
0.457655444804
0
0.533825134973
0
0.617714214384
0
0.707257055489
0
0.800248816366
0
0.894399731239
0
0.987391492116
0
1.07693433322
0
1.16082341263
0
1.2369931028
0
1.30356785316
0
1.35890837242
0
1.40165199331
0
1.43074622604
1.44547467404
0
0.327599821954
0
0.327599821954
0
0.327599821954
0
0.327599821954
0
0.327599821954
0
0.327599821954
0
0.327599821954
0
0.327599821954
0
0.327599821954
0
0.327599821954
0
0.327599821954
0
0.327599821954
0
0.327599821954
0
0.327599821954
0
0.327599821954
0
0.327599821954
0
0.327599821954
0
0.327599821954
0
0.327599821954
0
0.327599821954
0
0.329449421715
0
0.344177869716
0
0.373272102448
0
0.416015723342
0
0.471356242594
0
0.537930992956
0
0.614100683125
0
0.697989762535
0
0.787532603641
0
0.880524364518
0
0.974675279391
0
1.06766704027
0
1.15720988137
0
1.24109896078
0
1.31726865095
0
1.38384340131
0
1.43918392057
0
1.48192754146
0
1.51102177419
1.52575022219
0
0.414582632664
0
0.414582632664
0
0.414582632664
0
0.414582632664
0
0.414582632664
0
0.414582632664
0
0.414582632664
0
0.414582632664
0
0.414582632664
0
0.414582632664
0
0.414582632664
0
0.414582632664
0
0.414582632664
0
0.414582632664
0
0.414582632664
0
0.414582632664
0
0.414582632664
0
0.414582632664
0
0.414582632664
0
0.414582632664
0
0.416432232424
0
0.431160680426
0
0.460254913157
0
0.502998534052
0
0.558339053304
0
0.624913803666
0
0.701083493835
0
0.784972573245
0
0.874515414351
0
0.967507175227
0
1.0616580901
0
1.15464985098
0
1.24419269208
0
1.32808177149
0
1.40425146166
0
1.47082621202
0
1.52616673128
0
1.56891035217
0
1.5980045849
1.6127330329
0
0.5061309432
0
0.5061309432
0
0.5061309432
0
0.5061309432
0
0.5061309432
0
0.5061309432
0
0.5061309432
0
0.5061309432
0
0.5061309432
0
0.5061309432
0
0.5061309432
0
0.5061309432
0
0.5061309432
0
0.5061309432
0
0.5061309432
0
0.5061309432
0
0.5061309432
0
0.5061309432
0
0.5061309432
0
0.5061309432
0
0.50798054296
0
0.522708990961
0
0.551803223693
0
0.594546844588
0
0.64988736384
0
0.716462114202
0
0.79263180437
0
0.876520883781
0
0.966063724887
0
1.05905548576
0
1.15320640064
0
1.24619816151
0
1.33574100262
0
1.41963008203
0
1.4957997722
0
1.56237452256
0
1.61771504181
0
1.66045866271
0
1.68955289544
1.70428134344
0
0.599990575316
0
0.599990575316
0
0.599990575316
0
0.599990575316
0
0.599990575316
0
0.599990575316
0
0.599990575316
0
0.599990575316
0
0.599990575316
0
0.599990575316
0
0.599990575316
0
0.599990575316
0
0.599990575316
0
0.599990575316
0
0.599990575316
0
0.599990575316
0
0.599990575316
0
0.599990575316
0
0.599990575316
0
0.599990575316
0
0.601840175076
0
0.616568623078
0
0.64566285581
0
0.688406476704
0
0.743746995956
0
0.810321746318
0
0.886491436487
0
0.970380515897
0
1.059923357
0
1.15291511788
0
1.24706603275
0
1.34005779363
0
1.42960063474
0
1.51348971415
0
1.58965940431
0
1.65623415468
0
1.71157467393
0
1.75431829482
0
1.78341252755
1.79814097556
0
0.693850439495
0
0.693850439495
0
0.693850439495
0
0.693850439495
0
0.693850439495
0
0.693850439495
0
0.693850439495
0
0.693850439495
0
0.693850439495
0
0.693850439495
0
0.693850439495
0
0.693850439495
0
0.693850439495
0
0.693850439495
0
0.693850439495
0
0.693850439495
0
0.693850439495
0
0.693850439495
0
0.693850439495
0
0.693850439495
0
0.695700039255
0
0.710428487256
0
0.739522719988
0
0.782266340882
0
0.837606860135
0
0.904181610497
0
0.980351300665
0
1.06424038008
0
1.15378322118
0
1.24677498206
0
1.34092589693
0
1.43391765781
0
1.52346049891
0
1.60734957832
0
1.68351926849
0
1.75009401885
0
1.80543453811
0
1.848178159
0
1.87727239173
1.89200083973
0
0.785399440504
0
0.785399440504
0
0.785399440504
0
0.785399440504
0
0.785399440504
0
0.785399440504
0
0.785399440504
0
0.785399440504
0
0.785399440504
0
0.785399440504
0
0.785399440504
0
0.785399440504
0
0.785399440504
0
0.785399440504
0
0.785399440504
0
0.785399440504
0
0.785399440504
0
0.785399440504
0
0.785399440504
0
0.785399440504
0
0.787249040264
0
0.801977488265
0
0.831071720997
0
0.873815341891
0
0.929155861144
0
0.995730611506
0
1.07190030167
0
1.15578938108
0
1.24533222219
0
1.33832398307
0
1.43247489794
0
1.52546665882
0
1.61500949992
0
1.69889857933
0
1.7750682695
0
1.84164301986
0
1.89698353912
0
1.93972716001
0
1.96882139274
1.98354984074
0
0.872383383096
0
0.872383383096
0
0.872383383096
0
0.872383383096
0
0.872383383096
0
0.872383383096
0
0.872383383096
0
0.872383383096
0
0.872383383096
0
0.872383383096
0
0.872383383096
0
0.872383383096
0
0.872383383096
0
0.872383383096
0
0.872383383096
0
0.872383383096
0
0.872383383096
0
0.872383383096
0
0.872383383096
0
0.872383383096
0
0.874232982856
0
0.888961430857
0
0.918055663589
0
0.960799284483
0
1.01613980374
0
1.0827145541
0
1.15888424427
0
1.24277332368
0
1.33231616478
0
1.42530792566
0
1.51945884053
0
1.61245060141
0
1.70199344251
0
1.78588252193
0
1.86205221209
0
1.92862696246
0
1.98396748171
0
2.0267111026
0
2.05580533533
2.07053378334
0
0.952660476669
0
0.952660476669
0
0.952660476669
0
0.952660476669
0
0.952660476669
0
0.952660476669
0
0.952660476669
0
0.952660476669
0
0.952660476669
0
0.952660476669
0
0.952660476669
0
0.952660476669
0
0.952660476669
0
0.952660476669
0
0.952660476669
0
0.952660476669
0
0.952660476669
0
0.952660476669
0
0.952660476669
0
0.952660476669
0
0.954510076429
0
0.969238524431
0
0.998332757162
0
1.04107637806
0
1.09641689731
0
1.16299164767
0
1.23916133784
0
1.32305041725
0
1.41259325836
0
1.50558501923
0
1.59973593411
0
1.69272769498
0
1.78227053609
0
1.8661596155
0
1.94232930567
0
2.00890405603
0
2.06424457528
0
2.10698819618
0
2.13608242891
2.15081087691
0
1.02425407221
0
1.02425407221
0
1.02425407221
0
1.02425407221
0
1.02425407221
0
1.02425407221
0
1.02425407221
0
1.02425407221
0
1.02425407221
0
1.02425407221
0
1.02425407221
0
1.02425407221
0
1.02425407221
0
1.02425407221
0
1.02425407221
0
1.02425407221
0
1.02425407221
0
1.02425407221
0
1.02425407221
0
1.02425407221
0
1.02610367197
0
1.04083211997
0
1.0699263527
0
1.1126699736
0
1.16801049285
0
1.23458524321
0
1.31075493338
0
1.39464401279
0
1.48418685389
0
1.57717861477
0
1.67132952964
0
1.76432129052
0
1.85386413163
0
1.93775321104
0
2.01392290121
0
2.08049765157
0
2.13583817082
0
2.17858179171
0
2.20767602445
2.22240447245
0
1.08540133297
0
1.08540133297
0
1.08540133297
0
1.08540133297
0
1.08540133297
0
1.08540133297
0
1.08540133297
0
1.08540133297
0
1.08540133297
0
1.08540133297
0
1.08540133297
0
1.08540133297
0
1.08540133297
0
1.08540133297
0
1.08540133297
0
1.08540133297
0
1.08540133297
0
1.08540133297
0
1.08540133297
0
1.08540133297
0
1.08725093273
0
1.10197938073
0
1.13107361346
0
1.17381723436
0
1.22915775361
0
1.29573250397
0
1.37190219414
0
1.45579127355
0
1.54533411465
0
1.63832587553
0
1.7324767904
0
1.82546855128
0
1.91501139239
0
1.9989004718
0
2.07507016197
0
2.14164491233
0
2.19698543158
0
2.23972905247
0
2.26882328521
2.28355173321
0
1.1345966405
0
1.1345966405
0
1.1345966405
0
1.1345966405
0
1.1345966405
0
1.1345966405
0
1.1345966405
0
1.1345966405
0
1.1345966405
0
1.1345966405
0
1.1345966405
0
1.1345966405
0
1.1345966405
0
1.1345966405
0
1.1345966405
0
1.1345966405
0
1.1345966405
0
1.1345966405
0
1.1345966405
0
1.1345966405
0
1.13644624026
0
1.15117468827
0
1.180268921
0
1.22301254189
0
1.27835306114
0
1.34492781151
0
1.42109750167
0
1.50498658108
0
1.59452942219
0
1.68752118307
0
1.78167209794
0
1.87466385882
0
1.96420669992
0
2.04809577933
0
2.1242654695
0
2.19084021986
0
2.24618073912
0
2.28892436001
0
2.31801859274
2.33274704074
0
1.17062866725
0
1.17062866725
0
1.17062866725
0
1.17062866725
0
1.17062866725
0
1.17062866725
0
1.17062866725
0
1.17062866725
0
1.17062866725
0
1.17062866725
0
1.17062866725
0
1.17062866725
0
1.17062866725
0
1.17062866725
0
1.17062866725
0
1.17062866725
0
1.17062866725
0
1.17062866725
0
1.17062866725
0
1.17062866725
0
1.17247826701
0
1.18720671501
0
1.21630094774
0
1.25904456864
0
1.31438508789
0
1.38095983825
0
1.45712952842
0
1.54101860783
0
1.63056144894
0
1.72355320981
0
1.81770412469
0
1.91069588557
0
2.00023872667
0
2.08412780608
0
2.16029749625
0
2.22687224661
0
2.28221276586
0
2.32495638676
0
2.35405061949
2.36877906749
0
1.19261020284
0
1.19261020284
0
1.19261020284
0
1.19261020284
0
1.19261020284
0
1.19261020284
0
1.19261020284
0
1.19261020284
0
1.19261020284
0
1.19261020284
0
1.19261020284
0
1.19261020284
0
1.19261020284
0
1.19261020284
0
1.19261020284
0
1.19261020284
0
1.19261020284
0
1.19261020284
0
1.19261020284
0
1.19261020284
0
1.1944598026
0
1.2091882506
0
1.23828248333
0
1.28102610422
0
1.33636662348
0
1.40294137384
0
1.47911106401
0
1.56300014342
0
1.65254298452
0
1.7455347454
0
1.83968566027
0
1.93267742115
0
2.02222026226
0
2.10610934167
0
2.18227903184
0
2.2488537822
0
2.30419430145
0
2.34693792234
0
2.37603215508
2.39076060308