/*--------------------------------*- C++ -*----------------------------------*\
| =========                 |                                                 |
| \\      /  F ield         | OpenFOAM: The Open Source CFD Toolbox           |
|  \\    /   O peration     | Version:  dev                                   |
|   \\  /    A nd           | Web:      www.OpenFOAM.org                      |
|    \\/     M anipulation  |                                                 |
\*---------------------------------------------------------------------------*/
FoamFile
{
    version     2.0;
    format      ascii;
    class       dictionary;
    location    "constant";
    object      add2dMountainDict;
}
// * * * * * * * * * * * * * * * * * * * * * * * * * * * * * * * * * * * * * //

// Specify 3 types of 2d mountain:
// ScharCos: hm cos^2 (pi*x/2a) cos^2(pi x/lambda) for |x|<a
//           from Schar et al, MWR, 2002
// ScharExp: hm exp(-x^2/a^2) cos^2(pi*x/lambda)
//           from Schar et al, MWR, 2002 and used by Klemp, MWR, 2011
// AgnessiWitch: hm/(1+x^2/a^2)
//           from Gallus and Klemp, MWR, 2000

// Specify 3 types of coordinate system to calculate distribution of points
// over the orography
// BTF: basic terrain following (like sigma).
// HTF: hybrid terrain following
// SLEVE: smooth level vertical from Schar e al 2002

mountainType ScharExp; // ScharCos or AgnessiWitch 

coordSys BTF; //SLEVE, BTF or HTF

// top of coordinate system (at or below domain height)
zt 20e3;
// horizontal scale of large scale mountains
a 5e3;
// mountain height
hm 250;
// horizontal scale for fine scale mountains (for Schar test case)
lambda 4e3;

// scale height for HTF
//HTF_scaleHeight 5e3;

// horizontal scales for SLEVE
/*SLEVE_scaleCoarse 5e3;*/
/*SLEVE_scaleFine 2e3;*/
/*SLEVE_exponent 1.35; // optimised value from Leuenberger et al. 2010*/

// ************************************************************************* //
