/*--------------------------------*- C++ -*----------------------------------*\
| =========                 |                                                 |
| \\      /  F ield         | OpenFOAM: The Open Source CFD Toolbox           |
|  \\    /   O peration     | Version:  1.5                                   |
|   \\  /    A nd           | Web:      http://www.OpenFOAM.org               |
|    \\/     M anipulation  |                                                 |
\*---------------------------------------------------------------------------*/
FoamFile
{
    version     2.0;
    format      ascii;
    class       surfaceVectorField;
    object      Uf;
}
// * * * * * * * * * * * * * * * * * * * * * * * * * * * * * * * * * * * * * //

dimensions      [0 1 -1 0 0 0 0];

internalField   uniform (20 0 0);

boundaryField
{
    ground
    {
        type            calculated;
        value           uniform (20 0 0);
    }
    top
    {
        type            calculated;
        value           uniform (20 0 0);
    }
    inlet
    {
        type            cyclic;
        value           uniform (20 0 0);
    }
    outlet
    {
        type		cyclic;
        value           uniform (20 0 0);
    }
    front
    {
        type            cyclic;
        value           uniform (20 0 0);
    }
    back
    {
        type		cyclic;
        value           uniform (20 0 0);
    }
}

// ************************************************************************* //
