// dummy file to placate blockMesh

FoamFile {
    version     2.0;
    format      ascii;
    class       dictionary;
    location    "system";
    object      controlDict;
}

startFrom       startTime;
startTime       0;
stopAt          endTime;
endTime         0;
deltaT          5;
writeControl    runTime;
writeInterval   1;
purgeWrite      0;
writeFormat     binary;
writePrecision  12;
writeCompression uncompressed;
timeFormat      general;
timePrecision   6;

libs ("libmeshToolsAtmos.so");
