/*--------------------------------*- C++ -*----------------------------------*\
| =========                 |                                                 |
| \\      /  F ield         | OpenFOAM: The Open Source CFD Toolbox           |
|  \\    /   O peration     | Version:  dev                                   |
|   \\  /    A nd           | Web:      www.OpenFOAM.org                      |
|    \\/     M anipulation  |                                                 |
\*---------------------------------------------------------------------------*/
FoamFile
{
    version     2.0;
    format      ascii;
    class       dictionary;
    object      topoSetDict;
}
// * * * * * * * * * * * * * * * * * * * * * * * * * * * * * * * * * * * * * //

actions
(
    // Faces in between two triangular prisms
    // ~~~~~~~~~~~~~~~~~~~~~~~~~~~~~~~~~~~~~~
    {
        name    prismFaces;
        type    faceSet;
        action  new;
        source triPrismFaces;
        sourceInfo {}
    }

    // Faces whose removal would lead to lower aspect ratio cells
    // ~~~~~~~~~~~~~~~~~~~~~~~~~~~~~~~~~~~~~~
    {
        name    prismFaces;
        type    faceSet;
        action  subset;
        source highAspectRatioFaces;
        sourceInfo {}
    }
);

// ************************************************************************* //
