/*--------------------------------*- C++ -*----------------------------------*\
  =========                 |
  \\      /  F ield         | OpenFOAM: The Open Source CFD Toolbox
   \\    /   O peration     | Website:  https://openfoam.org
    \\  /    A nd           | Version:  7
     \\/     M anipulation  |
\*---------------------------------------------------------------------------*/
FoamFile
{
    version     2.0;
    format      ascii;
    class       surfaceScalarField;
    location    "constant";
    object      T_analyticf_analytic;
}
// * * * * * * * * * * * * * * * * * * * * * * * * * * * * * * * * * * * * * //

dimensions      [0 0 0 0 0 0 0];

internalField   nonuniform List<scalar> 
760
(
3.39645e-13
1.45441e-13
8.51751e-12
4.13296e-12
1.66351e-10
9.14664e-11
2.53027e-09
1.57648e-09
2.99732e-08
2.11613e-08
2.76519e-07
2.21219e-07
1.98676e-06
1.80106e-06
1.11171e-05
1.14198e-05
4.84465e-05
5.63922e-05
0.000164422
0.000216872
0.000434596
0.000649555
0.000894617
0.00151514
0.00143422
0.00275244
0.00179068
0.00389411
0.0017412
0.00429068
0.00131858
0.00368188
0.000777658
0.00246059
0.000357189
0.00128066
0.000127771
0.000519108
0.000163873
1.76979e-12
6.68803e-13
4.43823e-11
1.90052e-11
8.6681e-10
4.20603e-10
1.31845e-08
7.24936e-09
1.56182e-07
9.7309e-08
1.44087e-06
1.01726e-06
1.03524e-05
8.28206e-06
5.7928e-05
5.25135e-05
0.000252441
0.000259316
0.000856759
0.000997275
0.00226456
0.00298694
0.0046616
0.0069673
0.0074733
0.0126569
0.00933074
0.0179069
0.00907291
0.0197304
0.00687073
0.0169309
0.00405216
0.0113149
0.00186121
0.00588906
0.000665781
0.00238709
0.00075356
7.18203e-12
2.39516e-12
1.80109e-10
6.80627e-11
3.51761e-09
1.50629e-09
5.35042e-08
2.59619e-08
6.33804e-07
3.4849e-07
5.8472e-06
3.64309e-06
4.20114e-05
2.96603e-05
0.000235078
0.000188065
0.00102444
0.000928682
0.00347683
0.00357151
0.00918983
0.010697
0.0189173
0.0249518
0.0303275
0.045328
0.0378652
0.0641294
0.0368189
0.0706601
0.0278822
0.0606342
0.0164441
0.0405217
0.007553
0.0210903
0.00270181
0.00854882
0.0026987
2.26985e-11
6.68035e-12
5.69226e-10
1.89834e-10
1.11173e-08
4.2012e-09
1.69098e-07
7.24103e-08
2.00311e-06
9.71972e-07
1.84798e-05
1.01609e-05
0.000132775
8.27255e-05
0.000742956
0.000524532
0.00323769
0.00259019
0.0109884
0.0099613
0.0290441
0.0298351
0.0597874
0.069593
0.0958488
0.126424
0.119672
0.178863
0.116365
0.197078
0.0881207
0.169115
0.051971
0.113019
0.023871
0.058823
0.00853898
0.0238435
0.00752695
5.58695e-11
1.45107e-11
1.40108e-09
4.12347e-10
2.73637e-08
9.12565e-09
4.16213e-07
1.57286e-07
4.9304e-06
2.11127e-06
4.54857e-05
2.20711e-05
0.000326809
0.000179692
0.00182869
0.00113936
0.00796915
0.00562628
0.0270465
0.0216375
0.0714883
0.0648064
0.147159
0.151167
0.235919
0.274612
0.294556
0.388518
0.286416
0.428083
0.216898
0.367343
0.12792
0.245494
0.0587553
0.127773
0.0210176
0.0517917
0.0163497
1.07097e-10
2.45474e-11
2.68575e-09
6.97557e-10
5.2454e-08
1.54376e-08
7.97846e-07
2.66077e-07
9.45117e-06
3.57158e-06
8.71923e-05
3.73371e-05
0.000626466
0.000303981
0.00350545
0.00192743
0.0152762
0.00951782
0.0518458
0.0366035
0.137037
0.109631
0.282091
0.255724
0.452238
0.464554
0.564639
0.657245
0.549037
0.724176
0.415775
0.621424
0.245212
0.415296
0.112629
0.216149
0.040289
0.0876146
0.0276583
1.59885e-10
3.23406e-11
4.00954e-09
9.19015e-10
7.83084e-08
2.03387e-08
1.1911e-06
3.5055e-07
1.41096e-05
4.70547e-06
0.000130169
4.91907e-05
0.000935249
0.000400488
0.00523327
0.00253934
0.0228058
0.0125395
0.0774004
0.0482242
0.204582
0.144437
0.421133
0.336911
0.675144
0.612039
0.842948
0.865905
0.819655
0.954085
0.620708
0.818711
0.366075
0.547143
0.168143
0.284772
0.0601473
0.11543
0.0364392
1.85893e-10
3.31831e-11
4.66177e-09
9.42957e-10
9.10468e-08
2.08685e-08
1.38486e-06
3.59682e-07
1.64048e-05
4.82806e-06
0.000151344
5.04722e-05
0.00108738
0.000410921
0.00608456
0.0026055
0.0265156
0.0128662
0.089991
0.0494806
0.237861
0.148199
0.489638
0.345688
0.784969
0.627984
0.980069
0.888463
0.952987
0.978941
0.721678
0.84004
0.425625
0.561397
0.195495
0.29219
0.0699313
0.118437
0.0373885
1.68324e-10
2.65163e-11
4.22117e-09
7.53507e-10
8.24417e-08
1.66758e-08
1.25397e-06
2.87419e-07
1.48543e-05
3.85805e-06
0.00013704
4.03318e-05
0.000984613
0.000328363
0.00550949
0.00208203
0.0240095
0.0102812
0.0814858
0.0395394
0.215381
0.118425
0.443361
0.276236
0.71078
0.501816
0.88744
0.709962
0.862918
0.782262
0.65347
0.671267
0.385398
0.448606
0.177018
0.233486
0.0633219
0.0946421
0.0298767
1.18701e-10
1.65019e-11
2.97675e-09
4.68931e-10
5.81374e-08
1.03779e-08
8.84292e-07
1.7887e-07
1.04752e-05
2.40099e-06
9.66396e-05
2.50998e-05
0.000694344
0.000204351
0.00388526
0.00129571
0.0169314
0.00639834
0.0574633
0.0246066
0.151885
0.0736994
0.312656
0.17191
0.501238
0.312296
0.625818
0.441832
0.608525
0.486826
0.460824
0.417751
0.27178
0.279182
0.124832
0.145306
0.0446543
0.0588988
0.0185932
6.51913e-11
7.99804e-12
1.63485e-09
2.27278e-10
3.19294e-08
5.02989e-09
4.85658e-07
8.66932e-08
5.75304e-06
1.16369e-06
5.3075e-05
1.21652e-05
0.000381338
9.90431e-05
0.00213381
0.000627996
0.00929881
0.0031011
0.0315592
0.0119262
0.0834162
0.0357201
0.171712
0.0833202
0.275283
0.151361
0.343703
0.214144
0.334205
0.235951
0.253087
0.202472
0.149263
0.135312
0.0685587
0.0704258
0.0245244
0.0285466
0.00901163
2.78838e-11
3.01897e-12
6.9926e-10
8.57892e-11
1.36569e-08
1.8986e-09
2.07727e-07
3.27235e-08
2.4607e-06
4.39251e-07
2.27014e-05
4.5919e-06
0.000163106
3.73851e-05
0.000912676
0.000237045
0.0039773
0.00117055
0.0134986
0.00450169
0.0356789
0.013483
0.0734451
0.0314503
0.117744
0.0571333
0.147009
0.0808314
0.142947
0.0890629
0.108251
0.0764259
0.0638432
0.0510752
0.0293241
0.0265832
0.0104896
0.0107753
0.00340156
9.28836e-12
8.87482e-13
2.32931e-10
2.52193e-11
4.54926e-09
5.58128e-10
6.91959e-08
9.61969e-09
8.19685e-07
1.29126e-07
7.56205e-06
1.34988e-06
5.43324e-05
1.09901e-05
0.000304022
6.96839e-05
0.00132488
0.000344105
0.00449651
0.00132336
0.011885
0.00396358
0.0244653
0.00924541
0.0392219
0.0167954
0.0489703
0.0237619
0.0476171
0.0261817
0.0360595
0.0224668
0.0212668
0.0150145
0.00976814
0.00781462
0.0034942
0.0031676
0.000999952
2.40965e-12
2.03183e-13
6.04284e-11
5.77379e-12
1.1802e-09
1.2778e-10
1.79513e-08
2.20236e-09
2.12648e-07
2.95625e-08
1.9618e-06
3.09045e-07
1.40953e-05
2.5161e-06
7.88713e-05
1.59536e-05
0.000343709
7.87805e-05
0.00116651
0.000302973
0.00308329
0.000907435
0.00634695
0.00211667
0.0101752
0.00384519
0.0127042
0.00544012
0.0123531
0.00599412
0.00935478
0.00514362
0.00551718
0.00343747
0.00253411
0.0017891
0.000906488
0.0007252
0.000228932
4.86849e-13
3.62277e-14
1.2209e-11
1.02947e-12
2.38449e-10
2.27832e-11
3.6269e-09
3.92683e-10
4.29637e-08
5.27103e-09
3.96365e-07
5.5103e-08
2.84783e-06
4.48623e-07
1.59353e-05
2.84455e-06
6.94435e-05
1.40466e-05
0.000235684
5.40204e-05
0.000622952
0.000161797
0.00128235
0.000377405
0.00205581
0.000685601
0.00256677
0.000969979
0.00249585
0.00106876
0.00189005
0.000917113
0.0011147
0.000612905
0.000511996
0.000318999
0.000183148
0.000129304
4.08188e-05
7.66057e-14
5.03061e-15
1.92109e-12
1.42954e-13
3.752e-11
3.1637e-12
5.70693e-10
5.45284e-11
6.76035e-09
7.31941e-10
6.2368e-08
7.65166e-09
4.48106e-07
6.22962e-08
2.50742e-06
3.94997e-07
1.09269e-05
1.95053e-06
3.70849e-05
7.50133e-06
9.80216e-05
2.24672e-05
0.000201778
5.24068e-05
0.000323482
9.52033e-05
0.000403882
0.000134692
0.000392722
0.000148409
0.0002974
0.000127351
0.000175398
8.51085e-05
8.05627e-05
4.42965e-05
2.88184e-05
1.79553e-05
5.66815e-06
9.3876e-15
5.44036e-16
2.35419e-13
1.54597e-14
4.59786e-12
3.42139e-13
6.99352e-11
5.89697e-12
8.28443e-10
7.91558e-11
7.64285e-09
8.27489e-10
5.49129e-08
6.73703e-09
3.0727e-07
4.2717e-08
1.33904e-06
2.1094e-07
4.54455e-06
8.11231e-07
1.2012e-05
2.42972e-06
2.47267e-05
5.66754e-06
3.96409e-05
1.02958e-05
4.94935e-05
1.45663e-05
4.81258e-05
1.60497e-05
3.64447e-05
1.37724e-05
2.1494e-05
9.20407e-06
9.87251e-06
4.79045e-06
3.53153e-06
1.94177e-06
6.12982e-07
8.95931e-16
4.58206e-17
2.24679e-14
1.30207e-15
4.38809e-13
2.88161e-14
6.67445e-12
4.96663e-13
7.90646e-11
6.66677e-12
7.29416e-10
6.9694e-11
5.24076e-09
5.67416e-10
2.93251e-08
3.59777e-09
1.27794e-07
1.77661e-08
4.33721e-07
6.83247e-08
1.1464e-06
2.04639e-07
2.35986e-06
4.77339e-07
3.78324e-06
8.67145e-07
4.72354e-06
1.22682e-06
4.59302e-06
1.35176e-06
3.4782e-06
1.15996e-06
2.05134e-06
7.75198e-07
9.42209e-07
4.03468e-07
3.37041e-07
1.63543e-07
5.16274e-08
6.65918e-17
3.00552e-18
1.66997e-15
8.54071e-17
3.26153e-14
1.89014e-15
4.96092e-13
3.25778e-14
5.87663e-12
4.37295e-13
5.42152e-11
4.57146e-12
3.8953e-10
3.72187e-11
2.17965e-09
2.3599e-10
9.49857e-09
1.16534e-09
3.22371e-08
4.48164e-09
8.52082e-08
1.3423e-08
1.75401e-07
3.13103e-08
2.81197e-07
5.68789e-08
3.51086e-07
8.04714e-08
3.41385e-07
8.86663e-08
2.58524e-07
7.60856e-08
1.5247e-07
5.08478e-08
7.00315e-08
2.64648e-08
2.50512e-08
1.07273e-08
3.38641e-09
3.85472e-18
9.66676e-17
1.88797e-15
2.87167e-14
3.40174e-13
3.1383e-12
2.25483e-11
1.26171e-10
5.49833e-10
1.86608e-09
4.93235e-09
1.01533e-08
1.62773e-08
2.03229e-08
1.97614e-08
1.49649e-08
8.82585e-09
4.05383e-09
1.45011e-09
)
;

boundaryField
{
    fixedWalls
    {
        type            calculated;
        value           nonuniform List<scalar> 
40
(
0
0
0
0
0
0
0
0
0
0
0
0
0
0
0
0
0
0
0
0
2
2
2
2
0
0
0
0
0
0
0
0
0
0
0
0
0
0
0
0
)
;
    }
    left
    {
        type            cyclic;
        value           nonuniform List<scalar> 
20
(
1
1
1
1
0
0
0
0
0
0
0
0
0
0
0
0
0
0
0
0
)
;
    }
    right
    {
        type            cyclic;
        value           nonuniform List<scalar> 
20
(
1
1
1
1
0
0
0
0
0
0
0
0
0
0
0
0
0
0
0
0
)
;
    }
    frontAndBack
    {
        type            empty;
        value           nonuniform 0();
    }
}


// ************************************************************************* //
