/*--------------------------------*- C++ -*----------------------------------*\
  =========                 |
  \\      /  F ield         | OpenFOAM: The Open Source CFD Toolbox
   \\    /   O peration     | Website:  https://openfoam.org
    \\  /    A nd           | Version:  7
     \\/     M anipulation  |
\*---------------------------------------------------------------------------*/
FoamFile
{
    version     2.0;
    format      ascii;
    class       volScalarField;
    location    "constant";
    object      T_analytic;
}
// * * * * * * * * * * * * * * * * * * * * * * * * * * * * * * * * * * * * * //

dimensions      [0 0 0 0 0 0 0];

internalField   nonuniform List<scalar> 
400
(
6.17542e-14
1.75485e-12
3.88366e-11
6.69373e-10
8.98507e-09
9.39293e-08
7.64728e-07
4.84886e-06
2.39441e-05
9.20839e-05
0.000275801
0.000643329
0.00116868
0.00165344
0.00182182
0.00156332
0.00104476
0.000543769
0.000220413
6.95803e-05
3.21784e-13
9.14404e-12
2.02367e-10
3.48791e-09
4.68187e-08
4.89439e-07
3.98478e-06
2.5266e-05
0.000124766
0.000479823
0.00143712
0.00335221
0.00608969
0.00861561
0.00949299
0.00814604
0.00544398
0.00283343
0.00114851
0.000362564
1.30583e-12
3.71076e-11
8.21227e-10
1.41543e-08
1.89995e-07
1.9862e-06
1.61707e-05
0.000102532
0.000506314
0.00194718
0.00583199
0.0136036
0.0247126
0.0349631
0.0385236
0.0330575
0.0220923
0.0114984
0.00466079
0.00147132
4.12704e-12
1.17277e-10
2.59545e-09
4.47343e-08
6.00473e-07
6.27731e-06
5.11069e-05
0.00032405
0.00160019
0.00615398
0.0184318
0.0429938
0.0781034
0.1105
0.121752
0.104477
0.0698218
0.0363402
0.0147302
0.00465006
1.01582e-11
2.88662e-10
6.38837e-09
1.10108e-07
1.47799e-06
1.54508e-05
0.000125793
0.000797607
0.00393865
0.0151472
0.0453675
0.105824
0.192241
0.27198
0.299678
0.257157
0.171857
0.0894467
0.0362566
0.0114455
1.94724e-11
5.53341e-10
1.2246e-08
2.11067e-07
2.83318e-06
2.96179e-05
0.000241135
0.00152895
0.00755007
0.029036
0.0869656
0.202855
0.368511
0.521364
0.574457
0.492948
0.329436
0.171462
0.0695008
0.0219401
2.90702e-11
8.26081e-10
1.8282e-08
3.15101e-07
4.22964e-06
4.42164e-05
0.000359989
0.00228256
0.0112715
0.0433477
0.129831
0.302841
0.550148
0.778342
0.857605
0.735921
0.491814
0.255975
0.103758
0.0327543
3.37991e-11
9.60459e-10
2.12559e-08
3.66358e-07
4.91767e-06
5.1409e-05
0.000418548
0.00265386
0.013105
0.050399
0.15095
0.352104
0.63964
0.904954
0.997111
0.855632
0.571817
0.297614
0.120636
0.0380824
3.06046e-11
8.69683e-10
1.92469e-08
3.31733e-07
4.45289e-06
4.65502e-05
0.00037899
0.00240304
0.0118664
0.0456356
0.136683
0.318826
0.579186
0.819424
0.902871
0.774764
0.517773
0.269486
0.109234
0.0344832
2.15822e-11
6.13296e-10
1.35728e-08
2.33936e-07
3.14015e-06
3.28269e-05
0.000267262
0.00169461
0.00836812
0.032182
0.0963883
0.224834
0.408439
0.577853
0.6367
0.546359
0.36513
0.19004
0.0770312
0.0243173
1.18531e-11
3.36826e-10
7.45428e-09
1.28479e-07
1.72459e-06
1.80287e-05
0.000146782
0.000930688
0.00459582
0.0176745
0.052937
0.12348
0.224317
0.31736
0.349679
0.300064
0.200532
0.104371
0.042306
0.0133552
5.06982e-12
1.44068e-10
3.18836e-09
5.49533e-08
7.37645e-07
7.71129e-06
6.27817e-05
0.000398076
0.00196573
0.00755979
0.0226423
0.0528152
0.0959453
0.135742
0.149565
0.128344
0.0857718
0.0446417
0.0180952
0.00571232
1.68881e-12
4.79904e-11
1.06207e-09
1.83055e-08
2.45717e-07
2.56871e-06
2.09132e-05
0.000132603
0.000654806
0.00251824
0.00754239
0.0175933
0.0319603
0.045217
0.0498218
0.0427526
0.0285715
0.0148706
0.0060277
0.00190283
4.38122e-13
1.245e-11
2.7553e-10
4.74894e-09
6.37455e-08
6.66391e-07
5.42545e-06
3.44007e-05
0.000169874
0.000653299
0.0019567
0.00456417
0.00829136
0.0117305
0.0129251
0.0110912
0.0074122
0.00385783
0.00156374
0.000493645
8.85188e-14
2.51541e-12
5.56686e-11
9.59483e-10
1.28792e-08
1.34639e-07
1.09617e-06
6.95038e-06
3.43216e-05
0.000131994
0.000395334
0.000922151
0.0016752
0.00237005
0.00261141
0.00224088
0.00149757
0.000779442
0.000315941
9.97368e-05
1.39284e-14
3.95801e-13
8.75946e-12
1.50975e-10
2.02655e-09
2.11854e-08
1.72482e-07
1.09364e-06
5.40051e-06
2.07692e-05
6.22059e-05
0.000145101
0.000263593
0.000372927
0.000410905
0.000352602
0.000235643
0.000122645
4.97134e-05
1.56936e-05
1.70685e-15
4.85032e-14
1.07342e-12
1.85011e-11
2.48342e-10
2.59615e-09
2.11367e-08
1.3402e-07
6.61802e-07
2.54515e-06
7.62298e-06
1.77813e-05
3.23018e-05
4.57002e-05
5.03541e-05
4.32094e-05
2.88767e-05
1.50295e-05
6.0921e-06
1.92316e-06
1.62898e-16
4.62903e-15
1.02445e-13
1.7657e-12
2.37012e-11
2.47771e-10
2.01723e-09
1.27905e-08
6.31608e-08
2.42903e-07
7.27519e-07
1.697e-06
3.08281e-06
4.36152e-06
4.80568e-06
4.1238e-06
2.75593e-06
1.43438e-06
5.81416e-07
1.83542e-07
1.21077e-17
3.44062e-16
7.61442e-15
1.31239e-13
1.76164e-12
1.84161e-11
1.49935e-10
9.50682e-10
4.69455e-09
1.80542e-08
5.40743e-08
1.26133e-07
2.29136e-07
3.24178e-07
3.57191e-07
3.0651e-07
2.0484e-07
1.06613e-07
4.32149e-08
1.36421e-08
7.00865e-19
1.99163e-17
4.40767e-16
7.5969e-15
1.01974e-13
1.06603e-12
8.67911e-12
5.5031e-11
2.71748e-10
1.04509e-09
3.13014e-09
7.30132e-09
1.32637e-08
1.87653e-08
2.06763e-08
1.77426e-08
1.18573e-08
6.17139e-09
2.50153e-09
7.89686e-10
)
;

boundaryField
{
    fixedWalls
    {
        type            zeroGradient;
    }
    left
    {
        type            cyclic;
    }
    right
    {
        type            cyclic;
    }
    frontAndBack
    {
        type            empty;
    }
}


// ************************************************************************* //
