/*--------------------------------*- C++ -*----------------------------------*\
  =========                 |
  \\      /  F ield         | OpenFOAM: The Open Source CFD Toolbox
   \\    /   O peration     | Website:  https://openfoam.org
    \\  /    A nd           | Version:  7
     \\/     M anipulation  |
\*---------------------------------------------------------------------------*/
FoamFile
{
    version     2.0;
    format      ascii;
    class       volScalarField;
    location    "constant";
    object      T_analytic;
}
// * * * * * * * * * * * * * * * * * * * * * * * * * * * * * * * * * * * * * //

dimensions      [0 0 0 0 0 0 0];

internalField   nonuniform List<scalar> 
1600
(
4.11637e-07
7.22445e-07
1.19111e-06
1.84483e-06
2.68421e-06
3.66888e-06
4.71093e-06
5.68247e-06
6.43908e-06
6.85436e-06
6.85436e-06
6.43908e-06
5.68247e-06
4.71093e-06
3.66888e-06
2.68421e-06
1.84483e-06
1.19111e-06
7.22445e-07
4.11637e-07
2.20333e-07
1.1079e-07
5.23337e-08
2.32229e-08
9.68076e-09
3.79104e-09
1.39465e-09
4.81977e-10
1.56475e-10
4.77222e-11
1.36726e-11
3.67994e-12
9.30434e-13
2.20998e-13
4.93112e-14
1.03362e-14
2.03532e-15
3.76496e-16
6.54251e-17
1.06804e-17
1.3497e-06
2.3688e-06
3.9055e-06
6.04896e-06
8.80118e-06
1.20298e-05
1.54465e-05
1.86321e-05
2.11129e-05
2.24746e-05
2.24746e-05
2.11129e-05
1.86321e-05
1.54465e-05
1.20298e-05
8.80118e-06
6.04896e-06
3.9055e-06
2.3688e-06
1.3497e-06
7.22445e-07
3.63268e-07
1.71596e-07
7.61451e-08
3.1742e-08
1.24303e-08
4.57287e-09
1.58034e-09
5.13062e-10
1.56475e-10
4.48308e-11
1.20661e-11
3.05078e-12
7.24623e-13
1.61685e-13
3.38911e-14
6.67355e-15
1.23448e-15
2.14521e-16
3.50196e-17
4.15738e-06
7.29643e-06
1.20298e-05
1.86321e-05
2.71095e-05
3.70543e-05
4.75787e-05
5.73909e-05
6.50324e-05
6.92266e-05
6.92266e-05
6.50324e-05
5.73909e-05
4.75787e-05
3.70543e-05
2.71095e-05
1.86321e-05
1.20298e-05
7.29643e-06
4.15738e-06
2.22529e-06
1.11894e-06
5.28552e-07
2.34543e-07
9.77723e-08
3.82882e-08
1.40854e-08
4.86779e-09
1.58034e-09
4.81977e-10
1.38089e-10
3.71661e-11
9.39705e-12
2.232e-12
4.98026e-13
1.04392e-13
2.0556e-14
3.80247e-15
6.60771e-16
1.07868e-16
1.20298e-05
2.11129e-05
3.48093e-05
5.39138e-05
7.8444e-05
0.00010722
0.000137674
0.000166066
0.000188177
0.000200314
0.000200314
0.000188177
0.000166066
0.000137674
0.00010722
7.8444e-05
5.39138e-05
3.48093e-05
2.11129e-05
1.20298e-05
6.43908e-06
3.23777e-06
1.52942e-06
6.78674e-07
2.82913e-07
1.1079e-07
4.07575e-08
1.40854e-08
4.57287e-09
1.39465e-09
3.99573e-10
1.07544e-10
2.71913e-11
6.45849e-12
1.44108e-12
3.02068e-13
5.94807e-14
1.10028e-14
1.912e-15
3.12126e-16
3.27003e-05
5.73909e-05
9.46216e-05
0.000146553
0.000213233
0.000291455
0.000374236
0.000451414
0.000511519
0.00054451
0.00054451
0.000511519
0.000451414
0.000374236
0.000291455
0.000213233
0.000146553
9.46216e-05
5.73909e-05
3.27003e-05
1.75032e-05
8.80118e-06
4.15738e-06
1.84483e-06
7.69038e-07
3.0116e-07
1.1079e-07
3.82882e-08
1.24303e-08
3.79104e-09
1.08615e-09
2.92334e-10
7.39135e-11
1.7556e-11
3.91727e-12
8.21105e-13
1.61685e-13
2.99088e-14
5.19736e-15
8.48446e-16
8.35033e-05
0.000146553
0.000241625
0.000374236
0.00054451
0.000744256
0.000955644
0.00115273
0.00130621
0.00139045
0.00139045
0.00130621
0.00115273
0.000955644
0.000744256
0.00054451
0.000374236
0.000241625
0.000146553
8.35033e-05
4.46961e-05
2.24746e-05
1.06162e-05
4.71093e-06
1.96381e-06
7.69038e-07
2.82913e-07
9.77723e-08
3.1742e-08
9.68076e-09
2.77359e-09
7.465e-10
1.88745e-10
4.48308e-11
1.00031e-11
2.09677e-12
4.12878e-13
7.63747e-14
1.32719e-14
2.16658e-15
0.000200314
0.000351562
0.000579627
0.000897745
0.00130621
0.00178538
0.00229247
0.00276525
0.00313344
0.00333553
0.00333553
0.00313344
0.00276525
0.00229247
0.00178538
0.00130621
0.000897745
0.000579627
0.000351562
0.000200314
0.00010722
5.39138e-05
2.54671e-05
1.13009e-05
4.71093e-06
1.84483e-06
6.78674e-07
2.34543e-07
7.61451e-08
2.32229e-08
6.65349e-09
1.79076e-09
4.52775e-10
1.07544e-10
2.39962e-11
5.02988e-12
9.90442e-13
1.83213e-13
3.18377e-14
5.19736e-15
0.000451414
0.000792257
0.00130621
0.0020231
0.00294359
0.00402341
0.00516616
0.00623158
0.00706131
0.00751672
0.00751672
0.00706131
0.00623158
0.00516616
0.00402341
0.00294359
0.0020231
0.00130621
0.000792257
0.000451414
0.000241625
0.000121497
5.73909e-05
2.54671e-05
1.06162e-05
4.15738e-06
1.52942e-06
5.28552e-07
1.71596e-07
5.23337e-08
1.49939e-08
4.03554e-09
1.02035e-09
2.42353e-10
5.40763e-11
1.1335e-11
2.232e-12
4.12878e-13
7.17474e-14
1.17124e-14
0.000955644
0.00167721
0.00276525
0.0042829
0.00623158
0.00851756
0.0109368
0.0131923
0.0149488
0.0159129
0.0159129
0.0149488
0.0131923
0.0109368
0.00851756
0.00623158
0.0042829
0.00276525
0.00167721
0.000955644
0.000511519
0.000257208
0.000121497
5.39138e-05
2.24746e-05
8.80118e-06
3.23777e-06
1.11894e-06
3.63268e-07
1.1079e-07
3.1742e-08
8.54324e-09
2.16007e-09
5.13062e-10
1.1448e-10
2.39962e-11
4.72513e-12
8.74062e-13
1.51889e-13
2.47952e-14
0.00190053
0.00333553
0.00549935
0.00851756
0.012393
0.0169392
0.0217504
0.0262359
0.0297292
0.0316466
0.0316466
0.0297292
0.0262359
0.0217504
0.0169392
0.012393
0.00851756
0.00549935
0.00333553
0.00190053
0.00101728
0.000511519
0.000241625
0.00010722
4.46961e-05
1.75032e-05
6.43908e-06
2.22529e-06
7.22445e-07
2.20333e-07
6.31265e-08
1.69903e-08
4.29581e-09
1.02035e-09
2.2767e-10
4.77222e-11
9.39705e-12
1.73828e-12
3.02068e-13
4.93112e-14
0.00355065
0.00623158
0.0102741
0.0159129
0.0231531
0.0316466
0.040635
0.0490152
0.0555415
0.0591236
0.0591236
0.0555415
0.0490152
0.040635
0.0316466
0.0231531
0.0159129
0.0102741
0.00623158
0.00355065
0.00190053
0.000955644
0.000451414
0.000200314
8.35033e-05
3.27003e-05
1.20298e-05
4.15738e-06
1.3497e-06
4.11637e-07
1.17936e-07
3.1742e-08
8.02564e-09
1.90626e-09
4.25343e-10
8.91568e-11
1.7556e-11
3.24753e-12
5.64337e-13
9.21255e-14
0.00623158
0.0109368
0.0180317
0.027928
0.040635
0.0555415
0.0713167
0.0860243
0.0974783
0.103765
0.103765
0.0974783
0.0860243
0.0713167
0.0555415
0.040635
0.027928
0.0180317
0.0109368
0.00623158
0.00333553
0.00167721
0.000792257
0.000351562
0.000146553
5.73909e-05
2.11129e-05
7.29643e-06
2.3688e-06
7.22445e-07
2.06984e-07
5.5709e-08
1.40854e-08
3.34558e-09
7.465e-10
1.56475e-10
3.08118e-11
5.6996e-12
9.90442e-13
1.61685e-13
0.0102741
0.0180317
0.0297292
0.0460455
0.0669958
0.0915724
0.117581
0.14183
0.160715
0.17108
0.17108
0.160715
0.14183
0.117581
0.0915724
0.0669958
0.0460455
0.0297292
0.0180317
0.0102741
0.00549935
0.00276525
0.00130621
0.000579627
0.000241625
9.46216e-05
3.48093e-05
1.20298e-05
3.9055e-06
1.19111e-06
3.41259e-07
9.18485e-08
2.32229e-08
5.51593e-09
1.23077e-09
2.57984e-10
5.08e-11
9.39705e-12
1.63296e-12
2.66574e-13
0.0159129
0.027928
0.0460455
0.0713167
0.103765
0.14183
0.182114
0.219671
0.24892
0.264974
0.264974
0.24892
0.219671
0.182114
0.14183
0.103765
0.0713167
0.0460455
0.027928
0.0159129
0.00851756
0.0042829
0.0020231
0.000897745
0.000374236
0.000146553
5.39138e-05
1.86321e-05
6.04896e-06
1.84483e-06
5.28552e-07
1.42258e-07
3.59684e-08
8.54324e-09
1.90626e-09
3.99573e-10
7.86806e-11
1.45544e-11
2.52918e-12
4.12878e-13
0.0231531
0.040635
0.0669958
0.103765
0.150977
0.206362
0.264974
0.319619
0.362176
0.385534
0.385534
0.362176
0.319619
0.264974
0.206362
0.150977
0.103765
0.0669958
0.040635
0.0231531
0.012393
0.00623158
0.00294359
0.00130621
0.00054451
0.000213233
7.8444e-05
2.71095e-05
8.80118e-06
2.68421e-06
7.69038e-07
2.06984e-07
5.23337e-08
1.24303e-08
2.77359e-09
5.81375e-10
1.1448e-10
2.11766e-11
3.67994e-12
6.00733e-13
0.0316466
0.0555415
0.0915724
0.14183
0.206362
0.282063
0.362176
0.436868
0.495036
0.526963
0.526963
0.495036
0.436868
0.362176
0.282063
0.206362
0.14183
0.0915724
0.0555415
0.0316466
0.0169392
0.00851756
0.00402341
0.00178538
0.000744256
0.000291455
0.00010722
3.70543e-05
1.20298e-05
3.66888e-06
1.05115e-06
2.82913e-07
7.15317e-08
1.69903e-08
3.79104e-09
7.94646e-10
1.56475e-10
2.8945e-11
5.02988e-12
8.21105e-13
0.040635
0.0713167
0.117581
0.182114
0.264974
0.362176
0.465043
0.560949
0.635639
0.676634
0.676634
0.635639
0.560949
0.465043
0.362176
0.264974
0.182114
0.117581
0.0713167
0.040635
0.0217504
0.0109368
0.00516616
0.00229247
0.000955644
0.000374236
0.000137674
4.75787e-05
1.54465e-05
4.71093e-06
1.3497e-06
3.63268e-07
9.18485e-08
2.18159e-08
4.86779e-09
1.02035e-09
2.00918e-10
3.71661e-11
6.45849e-12
1.05432e-12
0.0490152
0.0860243
0.14183
0.219671
0.319619
0.436868
0.560949
0.676634
0.766727
0.816176
0.816176
0.766727
0.676634
0.560949
0.436868
0.319619
0.219671
0.14183
0.0860243
0.0490152
0.0262359
0.0131923
0.00623158
0.00276525
0.00115273
0.000451414
0.000166066
5.73909e-05
1.86321e-05
5.68247e-06
1.62805e-06
4.38185e-07
1.1079e-07
2.6315e-08
5.87168e-09
1.23077e-09
2.42353e-10
4.48308e-11
7.79043e-12
1.27175e-12
0.0555415
0.0974783
0.160715
0.24892
0.362176
0.495036
0.635639
0.766727
0.868815
0.924849
0.924849
0.868815
0.766727
0.635639
0.495036
0.362176
0.24892
0.160715
0.0974783
0.0555415
0.0297292
0.0149488
0.00706131
0.00313344
0.00130621
0.000511519
0.000188177
6.50324e-05
2.11129e-05
6.43908e-06
1.84483e-06
4.96528e-07
1.25542e-07
2.98189e-08
6.65349e-09
1.39465e-09
2.74622e-10
5.08e-11
8.82771e-12
1.44108e-12
0.0591236
0.103765
0.17108
0.264974
0.385534
0.526963
0.676634
0.816176
0.924849
0.984496
0.984496
0.924849
0.816176
0.676634
0.526963
0.385534
0.264974
0.17108
0.103765
0.0591236
0.0316466
0.0159129
0.00751672
0.00333553
0.00139045
0.00054451
0.000200314
6.92266e-05
2.24746e-05
6.85436e-06
1.96381e-06
5.28552e-07
1.33639e-07
3.1742e-08
7.0826e-09
1.48459e-09
2.92334e-10
5.40763e-11
9.39705e-12
1.53403e-12
0.0591236
0.103765
0.17108
0.264974
0.385534
0.526963
0.676634
0.816176
0.924849
0.984496
0.984496
0.924849
0.816176
0.676634
0.526963
0.385534
0.264974
0.17108
0.103765
0.0591236
0.0316466
0.0159129
0.00751672
0.00333553
0.00139045
0.00054451
0.000200314
6.92266e-05
2.24746e-05
6.85436e-06
1.96381e-06
5.28552e-07
1.33639e-07
3.1742e-08
7.0826e-09
1.48459e-09
2.92334e-10
5.40763e-11
9.39705e-12
1.53403e-12
0.0555415
0.0974783
0.160715
0.24892
0.362176
0.495036
0.635639
0.766727
0.868815
0.924849
0.924849
0.868815
0.766727
0.635639
0.495036
0.362176
0.24892
0.160715
0.0974783
0.0555415
0.0297292
0.0149488
0.00706131
0.00313344
0.00130621
0.000511519
0.000188177
6.50324e-05
2.11129e-05
6.43908e-06
1.84483e-06
4.96528e-07
1.25542e-07
2.98189e-08
6.65349e-09
1.39465e-09
2.74622e-10
5.08e-11
8.82771e-12
1.44108e-12
0.0490152
0.0860243
0.14183
0.219671
0.319619
0.436868
0.560949
0.676634
0.766727
0.816176
0.816176
0.766727
0.676634
0.560949
0.436868
0.319619
0.219671
0.14183
0.0860243
0.0490152
0.0262359
0.0131923
0.00623158
0.00276525
0.00115273
0.000451414
0.000166066
5.73909e-05
1.86321e-05
5.68247e-06
1.62805e-06
4.38185e-07
1.1079e-07
2.6315e-08
5.87168e-09
1.23077e-09
2.42353e-10
4.48308e-11
7.79043e-12
1.27175e-12
0.040635
0.0713167
0.117581
0.182114
0.264974
0.362176
0.465043
0.560949
0.635639
0.676634
0.676634
0.635639
0.560949
0.465043
0.362176
0.264974
0.182114
0.117581
0.0713167
0.040635
0.0217504
0.0109368
0.00516616
0.00229247
0.000955644
0.000374236
0.000137674
4.75787e-05
1.54465e-05
4.71093e-06
1.3497e-06
3.63268e-07
9.18485e-08
2.18159e-08
4.86779e-09
1.02035e-09
2.00918e-10
3.71661e-11
6.45849e-12
1.05432e-12
0.0316466
0.0555415
0.0915724
0.14183
0.206362
0.282063
0.362176
0.436868
0.495036
0.526963
0.526963
0.495036
0.436868
0.362176
0.282063
0.206362
0.14183
0.0915724
0.0555415
0.0316466
0.0169392
0.00851756
0.00402341
0.00178538
0.000744256
0.000291455
0.00010722
3.70543e-05
1.20298e-05
3.66888e-06
1.05115e-06
2.82913e-07
7.15317e-08
1.69903e-08
3.79104e-09
7.94646e-10
1.56475e-10
2.8945e-11
5.02988e-12
8.21105e-13
0.0231531
0.040635
0.0669958
0.103765
0.150977
0.206362
0.264974
0.319619
0.362176
0.385534
0.385534
0.362176
0.319619
0.264974
0.206362
0.150977
0.103765
0.0669958
0.040635
0.0231531
0.012393
0.00623158
0.00294359
0.00130621
0.00054451
0.000213233
7.8444e-05
2.71095e-05
8.80118e-06
2.68421e-06
7.69038e-07
2.06984e-07
5.23337e-08
1.24303e-08
2.77359e-09
5.81375e-10
1.1448e-10
2.11766e-11
3.67994e-12
6.00733e-13
0.0159129
0.027928
0.0460455
0.0713167
0.103765
0.14183
0.182114
0.219671
0.24892
0.264974
0.264974
0.24892
0.219671
0.182114
0.14183
0.103765
0.0713167
0.0460455
0.027928
0.0159129
0.00851756
0.0042829
0.0020231
0.000897745
0.000374236
0.000146553
5.39138e-05
1.86321e-05
6.04896e-06
1.84483e-06
5.28552e-07
1.42258e-07
3.59684e-08
8.54324e-09
1.90626e-09
3.99573e-10
7.86806e-11
1.45544e-11
2.52918e-12
4.12878e-13
0.0102741
0.0180317
0.0297292
0.0460455
0.0669958
0.0915724
0.117581
0.14183
0.160715
0.17108
0.17108
0.160715
0.14183
0.117581
0.0915724
0.0669958
0.0460455
0.0297292
0.0180317
0.0102741
0.00549935
0.00276525
0.00130621
0.000579627
0.000241625
9.46216e-05
3.48093e-05
1.20298e-05
3.9055e-06
1.19111e-06
3.41259e-07
9.18485e-08
2.32229e-08
5.51593e-09
1.23077e-09
2.57984e-10
5.08e-11
9.39705e-12
1.63296e-12
2.66574e-13
0.00623158
0.0109368
0.0180317
0.027928
0.040635
0.0555415
0.0713167
0.0860243
0.0974783
0.103765
0.103765
0.0974783
0.0860243
0.0713167
0.0555415
0.040635
0.027928
0.0180317
0.0109368
0.00623158
0.00333553
0.00167721
0.000792257
0.000351562
0.000146553
5.73909e-05
2.11129e-05
7.29643e-06
2.3688e-06
7.22445e-07
2.06984e-07
5.5709e-08
1.40854e-08
3.34558e-09
7.465e-10
1.56475e-10
3.08118e-11
5.6996e-12
9.90442e-13
1.61685e-13
0.00355065
0.00623158
0.0102741
0.0159129
0.0231531
0.0316466
0.040635
0.0490152
0.0555415
0.0591236
0.0591236
0.0555415
0.0490152
0.040635
0.0316466
0.0231531
0.0159129
0.0102741
0.00623158
0.00355065
0.00190053
0.000955644
0.000451414
0.000200314
8.35033e-05
3.27003e-05
1.20298e-05
4.15738e-06
1.3497e-06
4.11637e-07
1.17936e-07
3.1742e-08
8.02564e-09
1.90626e-09
4.25343e-10
8.91568e-11
1.7556e-11
3.24753e-12
5.64337e-13
9.21255e-14
0.00190053
0.00333553
0.00549935
0.00851756
0.012393
0.0169392
0.0217504
0.0262359
0.0297292
0.0316466
0.0316466
0.0297292
0.0262359
0.0217504
0.0169392
0.012393
0.00851756
0.00549935
0.00333553
0.00190053
0.00101728
0.000511519
0.000241625
0.00010722
4.46961e-05
1.75032e-05
6.43908e-06
2.22529e-06
7.22445e-07
2.20333e-07
6.31265e-08
1.69903e-08
4.29581e-09
1.02035e-09
2.2767e-10
4.77222e-11
9.39705e-12
1.73828e-12
3.02068e-13
4.93112e-14
0.000955644
0.00167721
0.00276525
0.0042829
0.00623158
0.00851756
0.0109368
0.0131923
0.0149488
0.0159129
0.0159129
0.0149488
0.0131923
0.0109368
0.00851756
0.00623158
0.0042829
0.00276525
0.00167721
0.000955644
0.000511519
0.000257208
0.000121497
5.39138e-05
2.24746e-05
8.80118e-06
3.23777e-06
1.11894e-06
3.63268e-07
1.1079e-07
3.1742e-08
8.54324e-09
2.16007e-09
5.13062e-10
1.1448e-10
2.39962e-11
4.72513e-12
8.74062e-13
1.51889e-13
2.47952e-14
0.000451414
0.000792257
0.00130621
0.0020231
0.00294359
0.00402341
0.00516616
0.00623158
0.00706131
0.00751672
0.00751672
0.00706131
0.00623158
0.00516616
0.00402341
0.00294359
0.0020231
0.00130621
0.000792257
0.000451414
0.000241625
0.000121497
5.73909e-05
2.54671e-05
1.06162e-05
4.15738e-06
1.52942e-06
5.28552e-07
1.71596e-07
5.23337e-08
1.49939e-08
4.03554e-09
1.02035e-09
2.42353e-10
5.40763e-11
1.1335e-11
2.232e-12
4.12878e-13
7.17474e-14
1.17124e-14
0.000200314
0.000351562
0.000579627
0.000897745
0.00130621
0.00178538
0.00229247
0.00276525
0.00313344
0.00333553
0.00333553
0.00313344
0.00276525
0.00229247
0.00178538
0.00130621
0.000897745
0.000579627
0.000351562
0.000200314
0.00010722
5.39138e-05
2.54671e-05
1.13009e-05
4.71093e-06
1.84483e-06
6.78674e-07
2.34543e-07
7.61451e-08
2.32229e-08
6.65349e-09
1.79076e-09
4.52775e-10
1.07544e-10
2.39962e-11
5.02988e-12
9.90442e-13
1.83213e-13
3.18377e-14
5.19736e-15
8.35033e-05
0.000146553
0.000241625
0.000374236
0.00054451
0.000744256
0.000955644
0.00115273
0.00130621
0.00139045
0.00139045
0.00130621
0.00115273
0.000955644
0.000744256
0.00054451
0.000374236
0.000241625
0.000146553
8.35033e-05
4.46961e-05
2.24746e-05
1.06162e-05
4.71093e-06
1.96381e-06
7.69038e-07
2.82913e-07
9.77723e-08
3.1742e-08
9.68076e-09
2.77359e-09
7.465e-10
1.88745e-10
4.48308e-11
1.00031e-11
2.09677e-12
4.12878e-13
7.63747e-14
1.32719e-14
2.16658e-15
3.27003e-05
5.73909e-05
9.46216e-05
0.000146553
0.000213233
0.000291455
0.000374236
0.000451414
0.000511519
0.00054451
0.00054451
0.000511519
0.000451414
0.000374236
0.000291455
0.000213233
0.000146553
9.46216e-05
5.73909e-05
3.27003e-05
1.75032e-05
8.80118e-06
4.15738e-06
1.84483e-06
7.69038e-07
3.0116e-07
1.1079e-07
3.82882e-08
1.24303e-08
3.79104e-09
1.08615e-09
2.92334e-10
7.39135e-11
1.7556e-11
3.91727e-12
8.21105e-13
1.61685e-13
2.99088e-14
5.19736e-15
8.48446e-16
1.20298e-05
2.11129e-05
3.48093e-05
5.39138e-05
7.8444e-05
0.00010722
0.000137674
0.000166066
0.000188177
0.000200314
0.000200314
0.000188177
0.000166066
0.000137674
0.00010722
7.8444e-05
5.39138e-05
3.48093e-05
2.11129e-05
1.20298e-05
6.43908e-06
3.23777e-06
1.52942e-06
6.78674e-07
2.82913e-07
1.1079e-07
4.07575e-08
1.40854e-08
4.57287e-09
1.39465e-09
3.99573e-10
1.07544e-10
2.71913e-11
6.45849e-12
1.44108e-12
3.02068e-13
5.94807e-14
1.10028e-14
1.912e-15
3.12126e-16
4.15738e-06
7.29643e-06
1.20298e-05
1.86321e-05
2.71095e-05
3.70543e-05
4.75787e-05
5.73909e-05
6.50324e-05
6.92266e-05
6.92266e-05
6.50324e-05
5.73909e-05
4.75787e-05
3.70543e-05
2.71095e-05
1.86321e-05
1.20298e-05
7.29643e-06
4.15738e-06
2.22529e-06
1.11894e-06
5.28552e-07
2.34543e-07
9.77723e-08
3.82882e-08
1.40854e-08
4.86779e-09
1.58034e-09
4.81977e-10
1.38089e-10
3.71661e-11
9.39705e-12
2.232e-12
4.98026e-13
1.04392e-13
2.0556e-14
3.80247e-15
6.60771e-16
1.07868e-16
1.3497e-06
2.3688e-06
3.9055e-06
6.04896e-06
8.80118e-06
1.20298e-05
1.54465e-05
1.86321e-05
2.11129e-05
2.24746e-05
2.24746e-05
2.11129e-05
1.86321e-05
1.54465e-05
1.20298e-05
8.80118e-06
6.04896e-06
3.9055e-06
2.3688e-06
1.3497e-06
7.22445e-07
3.63268e-07
1.71596e-07
7.61451e-08
3.1742e-08
1.24303e-08
4.57287e-09
1.58034e-09
5.13062e-10
1.56475e-10
4.48308e-11
1.20661e-11
3.05078e-12
7.24623e-13
1.61685e-13
3.38911e-14
6.67355e-15
1.23448e-15
2.14521e-16
3.50196e-17
4.11637e-07
7.22445e-07
1.19111e-06
1.84483e-06
2.68421e-06
3.66888e-06
4.71093e-06
5.68247e-06
6.43908e-06
6.85436e-06
6.85436e-06
6.43908e-06
5.68247e-06
4.71093e-06
3.66888e-06
2.68421e-06
1.84483e-06
1.19111e-06
7.22445e-07
4.11637e-07
2.20333e-07
1.1079e-07
5.23337e-08
2.32229e-08
9.68076e-09
3.79104e-09
1.39465e-09
4.81977e-10
1.56475e-10
4.77222e-11
1.36726e-11
3.67994e-12
9.30434e-13
2.20998e-13
4.93112e-14
1.03362e-14
2.03532e-15
3.76496e-16
6.54251e-17
1.06804e-17
)
;

boundaryField
{
    fixedWalls
    {
        type            zeroGradient;
    }
    left
    {
        type            cyclic;
    }
    right
    {
        type            cyclic;
    }
    frontAndBack
    {
        type            empty;
    }
}


// ************************************************************************* //
