/*--------------------------------*- C++ -*----------------------------------*\
| =========                 |                                                 |
| \\      /  F ield         | OpenFOAM: The Open Source CFD Toolbox           |
|  \\    /   O peration     | Version:  3.0.1                                 |
|   \\  /    A nd           | Web:      www.OpenFOAM.org                      |
|    \\/     M anipulation  |                                                 |
\*---------------------------------------------------------------------------*/
FoamFile
{
    version     2.0;
    format      ascii;
    class       volScalarField;
    location    "constant";
    object      rlRef;
}
// * * * * * * * * * * * * * * * * * * * * * * * * * * * * * * * * * * * * * //

dimensions      [0 0 0 0 0 0 0];

internalField   nonuniform List<scalar> 
40000
(
0.00804346
0.00804346
0.00804346
0.00804346
0.00804346
0.00804346
0.00804346
0.00804346
0.00804346
0.00804346
0.00804346
0.00804346
0.00804346
0.00804346
0.00804346
0.00804346
0.00804346
0.00804346
0.00804346
0.00804346
0.00804346
0.00804346
0.00804346
0.00804346
0.00804346
0.00804346
0.00804346
0.00804346
0.00804346
0.00804346
0.00804346
0.00804346
0.00804346
0.00804346
0.00804346
0.00804346
0.00804346
0.00804346
0.00804346
0.00804346
0.00804346
0.00804346
0.00804346
0.00804346
0.00804346
0.00804346
0.00804346
0.00804346
0.00804346
0.00804346
0.00804346
0.00804346
0.00804346
0.00804346
0.00804346
0.00804346
0.00804346
0.00804346
0.00804346
0.00804346
0.00804346
0.00804346
0.00804346
0.00804346
0.00804346
0.00804346
0.00804346
0.00804346
0.00804346
0.00804346
0.00804346
0.00804346
0.00804346
0.00804346
0.00804346
0.00804346
0.00804346
0.00804346
0.00804346
0.00804346
0.00804346
0.00804346
0.00804346
0.00804346
0.00804346
0.00804346
0.00804346
0.00804346
0.00804346
0.00804346
0.00804346
0.00804346
0.00804346
0.00804346
0.00804346
0.00804346
0.00804346
0.00804346
0.00804346
0.00804346
0.00804346
0.00804346
0.00804346
0.00804346
0.00804346
0.00804346
0.00804346
0.00804346
0.00804346
0.00804346
0.00804346
0.00804346
0.00804346
0.00804346
0.00804346
0.00804346
0.00804346
0.00804346
0.00804346
0.00804346
0.00804346
0.00804346
0.00804346
0.00804346
0.00804346
0.00804346
0.00804346
0.00804346
0.00804346
0.00804346
0.00804346
0.00804346
0.00804346
0.00804346
0.00804346
0.00804346
0.00804346
0.00804346
0.00804346
0.00804346
0.00804346
0.00804346
0.00804346
0.00804346
0.00804346
0.00804346
0.00804346
0.00804346
0.00804346
0.00804346
0.00804346
0.00804346
0.00804346
0.00804346
0.00804346
0.00804346
0.00804346
0.00804346
0.00804346
0.00804346
0.00804346
0.00804346
0.00804346
0.00804346
0.00804346
0.00804346
0.00804346
0.00804346
0.00804346
0.00804346
0.00804346
0.00804346
0.00804346
0.00804346
0.00804346
0.00804346
0.00804346
0.00804346
0.00804346
0.00804346
0.00804346
0.00804346
0.00804346
0.00804346
0.00804346
0.00804346
0.00804346
0.00804346
0.00804346
0.00804346
0.00804346
0.00804346
0.00804346
0.00804346
0.00804346
0.00804346
0.00804346
0.00804346
0.00804346
0.00804346
0.00825454
0.00825454
0.00825454
0.00825454
0.00825454
0.00825454
0.00825454
0.00825454
0.00825454
0.00825454
0.00825454
0.00825454
0.00825454
0.00825454
0.00825454
0.00825454
0.00825454
0.00825454
0.00825454
0.00825454
0.00825454
0.00825454
0.00825454
0.00825454
0.00825454
0.00825454
0.00825454
0.00825454
0.00825454
0.00825454
0.00825454
0.00825454
0.00825454
0.00825454
0.00825454
0.00825454
0.00825454
0.00825454
0.00825454
0.00825454
0.00825454
0.00825454
0.00825454
0.00825454
0.00825454
0.00825454
0.00825454
0.00825454
0.00825454
0.00825454
0.00825454
0.00825454
0.00825454
0.00825454
0.00825454
0.00825454
0.00825454
0.00825454
0.00825454
0.00825454
0.00825454
0.00825454
0.00825454
0.00825454
0.00825454
0.00825454
0.00825454
0.00825454
0.00825454
0.00825454
0.00825454
0.00825454
0.00825454
0.00825454
0.00825454
0.00825454
0.00825454
0.00825454
0.00825454
0.00825454
0.00825454
0.00825454
0.00825454
0.00825454
0.00825454
0.00825454
0.00825454
0.00825454
0.00825454
0.00825454
0.00825454
0.00825454
0.00825454
0.00825454
0.00825454
0.00825454
0.00825454
0.00825454
0.00825454
0.00825454
0.00825454
0.00825454
0.00825454
0.00825454
0.00825454
0.00825454
0.00825454
0.00825454
0.00825454
0.00825454
0.00825454
0.00825454
0.00825454
0.00825454
0.00825454
0.00825454
0.00825454
0.00825454
0.00825454
0.00825454
0.00825454
0.00825454
0.00825454
0.00825454
0.00825454
0.00825454
0.00825454
0.00825454
0.00825454
0.00825454
0.00825454
0.00825454
0.00825454
0.00825454
0.00825454
0.00825454
0.00825454
0.00825454
0.00825454
0.00825454
0.00825454
0.00825454
0.00825454
0.00825454
0.00825454
0.00825454
0.00825454
0.00825454
0.00825454
0.00825454
0.00825454
0.00825454
0.00825454
0.00825454
0.00825454
0.00825454
0.00825454
0.00825454
0.00825454
0.00825454
0.00825454
0.00825454
0.00825454
0.00825454
0.00825454
0.00825454
0.00825454
0.00825454
0.00825454
0.00825454
0.00825454
0.00825454
0.00825454
0.00825454
0.00825454
0.00825454
0.00825454
0.00825454
0.00825454
0.00825454
0.00825454
0.00825454
0.00825454
0.00825454
0.00825454
0.00825454
0.00825454
0.00825454
0.00825454
0.00825454
0.00825454
0.00825454
0.00825454
0.00825454
0.00825454
0.00825454
0.00825454
0.00825454
0.00825454
0.00825454
0.00846444
0.00846444
0.00846444
0.00846444
0.00846444
0.00846444
0.00846444
0.00846444
0.00846444
0.00846444
0.00846444
0.00846444
0.00846444
0.00846444
0.00846444
0.00846444
0.00846444
0.00846444
0.00846444
0.00846444
0.00846444
0.00846444
0.00846444
0.00846444
0.00846444
0.00846444
0.00846444
0.00846444
0.00846444
0.00846444
0.00846444
0.00846444
0.00846444
0.00846444
0.00846444
0.00846444
0.00846444
0.00846444
0.00846444
0.00846444
0.00846444
0.00846444
0.00846444
0.00846444
0.00846444
0.00846444
0.00846444
0.00846444
0.00846444
0.00846444
0.00846444
0.00846444
0.00846444
0.00846444
0.00846444
0.00846444
0.00846444
0.00846444
0.00846444
0.00846444
0.00846444
0.00846444
0.00846444
0.00846444
0.00846444
0.00846444
0.00846444
0.00846444
0.00846444
0.00846444
0.00846444
0.00846444
0.00846444
0.00846444
0.00846444
0.00846444
0.00846444
0.00846444
0.00846444
0.00846444
0.00846444
0.00846444
0.00846444
0.00846444
0.00846444
0.00846444
0.00846444
0.00846444
0.00846444
0.00846444
0.00846444
0.00846444
0.00846444
0.00846444
0.00846444
0.00846444
0.00846444
0.00846444
0.00846444
0.00846444
0.00846444
0.00846444
0.00846444
0.00846444
0.00846444
0.00846444
0.00846444
0.00846444
0.00846444
0.00846444
0.00846444
0.00846444
0.00846444
0.00846444
0.00846444
0.00846444
0.00846444
0.00846444
0.00846444
0.00846444
0.00846444
0.00846444
0.00846444
0.00846444
0.00846444
0.00846444
0.00846444
0.00846444
0.00846444
0.00846444
0.00846444
0.00846444
0.00846444
0.00846444
0.00846444
0.00846444
0.00846444
0.00846444
0.00846444
0.00846444
0.00846444
0.00846444
0.00846444
0.00846444
0.00846444
0.00846444
0.00846444
0.00846444
0.00846444
0.00846444
0.00846444
0.00846444
0.00846444
0.00846444
0.00846444
0.00846444
0.00846444
0.00846444
0.00846444
0.00846444
0.00846444
0.00846444
0.00846444
0.00846444
0.00846444
0.00846444
0.00846444
0.00846444
0.00846444
0.00846444
0.00846444
0.00846444
0.00846444
0.00846444
0.00846444
0.00846444
0.00846444
0.00846444
0.00846444
0.00846444
0.00846444
0.00846444
0.00846444
0.00846444
0.00846444
0.00846444
0.00846444
0.00846444
0.00846444
0.00846444
0.00846444
0.00846444
0.00846444
0.00846444
0.00846444
0.00846444
0.00846444
0.00846444
0.00846444
0.00846444
0.00867314
0.00867314
0.00867314
0.00867314
0.00867314
0.00867314
0.00867314
0.00867314
0.00867314
0.00867314
0.00867314
0.00867314
0.00867314
0.00867314
0.00867314
0.00867314
0.00867314
0.00867314
0.00867314
0.00867314
0.00867314
0.00867314
0.00867314
0.00867314
0.00867314
0.00867314
0.00867314
0.00867314
0.00867314
0.00867314
0.00867314
0.00867314
0.00867314
0.00867314
0.00867314
0.00867314
0.00867314
0.00867314
0.00867314
0.00867314
0.00867314
0.00867314
0.00867314
0.00867314
0.00867314
0.00867314
0.00867314
0.00867314
0.00867314
0.00867314
0.00867314
0.00867314
0.00867314
0.00867314
0.00867314
0.00867314
0.00867314
0.00867314
0.00867314
0.00867314
0.00867314
0.00867314
0.00867314
0.00867314
0.00867314
0.00867314
0.00867314
0.00867314
0.00867314
0.00867314
0.00867314
0.00867314
0.00867314
0.00867314
0.00867314
0.00867314
0.00867314
0.00867314
0.00867314
0.00867314
0.00867314
0.00867314
0.00867314
0.00867314
0.00867314
0.00867314
0.00867314
0.00867314
0.00867314
0.00867314
0.00867314
0.00867314
0.00867314
0.00867314
0.00867314
0.00867314
0.00867314
0.00867314
0.00867314
0.00867314
0.00867314
0.00867314
0.00867314
0.00867314
0.00867314
0.00867314
0.00867314
0.00867314
0.00867314
0.00867314
0.00867314
0.00867314
0.00867314
0.00867314
0.00867314
0.00867314
0.00867314
0.00867314
0.00867314
0.00867314
0.00867314
0.00867314
0.00867314
0.00867314
0.00867314
0.00867314
0.00867314
0.00867314
0.00867314
0.00867314
0.00867314
0.00867314
0.00867314
0.00867314
0.00867314
0.00867314
0.00867314
0.00867314
0.00867314
0.00867314
0.00867314
0.00867314
0.00867314
0.00867314
0.00867314
0.00867314
0.00867314
0.00867314
0.00867314
0.00867314
0.00867314
0.00867314
0.00867314
0.00867314
0.00867314
0.00867314
0.00867314
0.00867314
0.00867314
0.00867314
0.00867314
0.00867314
0.00867314
0.00867314
0.00867314
0.00867314
0.00867314
0.00867314
0.00867314
0.00867314
0.00867314
0.00867314
0.00867314
0.00867314
0.00867314
0.00867314
0.00867314
0.00867314
0.00867314
0.00867314
0.00867314
0.00867314
0.00867314
0.00867314
0.00867314
0.00867314
0.00867314
0.00867314
0.00867314
0.00867314
0.00867314
0.00867314
0.00867314
0.00867314
0.00867314
0.00867314
0.00867314
0.00867314
0.00867314
0.00867314
0.00888062
0.00888062
0.00888062
0.00888062
0.00888062
0.00888062
0.00888062
0.00888062
0.00888062
0.00888062
0.00888062
0.00888062
0.00888062
0.00888062
0.00888062
0.00888062
0.00888062
0.00888062
0.00888062
0.00888062
0.00888062
0.00888062
0.00888062
0.00888062
0.00888062
0.00888062
0.00888062
0.00888062
0.00888062
0.00888062
0.00888062
0.00888062
0.00888062
0.00888062
0.00888062
0.00888062
0.00888062
0.00888062
0.00888062
0.00888062
0.00888062
0.00888062
0.00888062
0.00888062
0.00888062
0.00888062
0.00888062
0.00888062
0.00888062
0.00888062
0.00888062
0.00888062
0.00888062
0.00888062
0.00888062
0.00888062
0.00888062
0.00888062
0.00888062
0.00888062
0.00888062
0.00888062
0.00888062
0.00888062
0.00888062
0.00888062
0.00888062
0.00888062
0.00888062
0.00888062
0.00888062
0.00888062
0.00888062
0.00888062
0.00888062
0.00888062
0.00888062
0.00888062
0.00888062
0.00888062
0.00888062
0.00888062
0.00888062
0.00888062
0.00888062
0.00888062
0.00888062
0.00888062
0.00888062
0.00888062
0.00888062
0.00888062
0.00888062
0.00888062
0.00888062
0.00888062
0.00888062
0.00888062
0.00888062
0.00888062
0.00888062
0.00888062
0.00888062
0.00888062
0.00888062
0.00888062
0.00888062
0.00888062
0.00888062
0.00888062
0.00888062
0.00888062
0.00888062
0.00888062
0.00888062
0.00888062
0.00888062
0.00888062
0.00888062
0.00888062
0.00888062
0.00888062
0.00888062
0.00888062
0.00888062
0.00888062
0.00888062
0.00888062
0.00888062
0.00888062
0.00888062
0.00888062
0.00888062
0.00888062
0.00888062
0.00888062
0.00888062
0.00888062
0.00888062
0.00888062
0.00888062
0.00888062
0.00888062
0.00888062
0.00888062
0.00888062
0.00888062
0.00888062
0.00888062
0.00888062
0.00888062
0.00888062
0.00888062
0.00888062
0.00888062
0.00888062
0.00888062
0.00888062
0.00888062
0.00888062
0.00888062
0.00888062
0.00888062
0.00888062
0.00888062
0.00888062
0.00888062
0.00888062
0.00888062
0.00888062
0.00888062
0.00888062
0.00888062
0.00888062
0.00888062
0.00888062
0.00888062
0.00888062
0.00888062
0.00888062
0.00888062
0.00888062
0.00888062
0.00888062
0.00888062
0.00888062
0.00888062
0.00888062
0.00888062
0.00888062
0.00888062
0.00888062
0.00888062
0.00888062
0.00888062
0.00888062
0.00888062
0.00888062
0.00888062
0.00888062
0.00908686
0.00908686
0.00908686
0.00908686
0.00908686
0.00908686
0.00908686
0.00908686
0.00908686
0.00908686
0.00908686
0.00908686
0.00908686
0.00908686
0.00908686
0.00908686
0.00908686
0.00908686
0.00908686
0.00908686
0.00908686
0.00908686
0.00908686
0.00908686
0.00908686
0.00908686
0.00908686
0.00908686
0.00908686
0.00908686
0.00908686
0.00908686
0.00908686
0.00908686
0.00908686
0.00908686
0.00908686
0.00908686
0.00908686
0.00908686
0.00908686
0.00908686
0.00908686
0.00908686
0.00908686
0.00908686
0.00908686
0.00908686
0.00908686
0.00908686
0.00908686
0.00908686
0.00908686
0.00908686
0.00908686
0.00908686
0.00908686
0.00908686
0.00908686
0.00908686
0.00908686
0.00908686
0.00908686
0.00908686
0.00908686
0.00908686
0.00908686
0.00908686
0.00908686
0.00908686
0.00908686
0.00908686
0.00908686
0.00908686
0.00908686
0.00908686
0.00908686
0.00908686
0.00908686
0.00908686
0.00908686
0.00908686
0.00908686
0.00908686
0.00908686
0.00908686
0.00908686
0.00908686
0.00908686
0.00908686
0.00908686
0.00908686
0.00908686
0.00908686
0.00908686
0.00908686
0.00908686
0.00908686
0.00908686
0.00908686
0.00908686
0.00908686
0.00908686
0.00908686
0.00908686
0.00908686
0.00908686
0.00908686
0.00908686
0.00908686
0.00908686
0.00908686
0.00908686
0.00908686
0.00908686
0.00908686
0.00908686
0.00908686
0.00908686
0.00908686
0.00908686
0.00908686
0.00908686
0.00908686
0.00908686
0.00908686
0.00908686
0.00908686
0.00908686
0.00908686
0.00908686
0.00908686
0.00908686
0.00908686
0.00908686
0.00908686
0.00908686
0.00908686
0.00908686
0.00908686
0.00908686
0.00908686
0.00908686
0.00908686
0.00908686
0.00908686
0.00908686
0.00908686
0.00908686
0.00908686
0.00908686
0.00908686
0.00908686
0.00908686
0.00908686
0.00908686
0.00908686
0.00908686
0.00908686
0.00908686
0.00908686
0.00908686
0.00908686
0.00908686
0.00908686
0.00908686
0.00908686
0.00908686
0.00908686
0.00908686
0.00908686
0.00908686
0.00908686
0.00908686
0.00908686
0.00908686
0.00908686
0.00908686
0.00908686
0.00908686
0.00908686
0.00908686
0.00908686
0.00908686
0.00908686
0.00908686
0.00908686
0.00908686
0.00908686
0.00908686
0.00908686
0.00908686
0.00908686
0.00908686
0.00908686
0.00908686
0.00908686
0.00908686
0.00908686
0.00908686
0.00929184
0.00929184
0.00929184
0.00929184
0.00929184
0.00929184
0.00929184
0.00929184
0.00929184
0.00929184
0.00929184
0.00929184
0.00929184
0.00929184
0.00929184
0.00929184
0.00929184
0.00929184
0.00929184
0.00929184
0.00929184
0.00929184
0.00929184
0.00929184
0.00929184
0.00929184
0.00929184
0.00929184
0.00929184
0.00929184
0.00929184
0.00929184
0.00929184
0.00929184
0.00929184
0.00929184
0.00929184
0.00929184
0.00929184
0.00929184
0.00929184
0.00929184
0.00929184
0.00929184
0.00929184
0.00929184
0.00929184
0.00929184
0.00929184
0.00929184
0.00929184
0.00929184
0.00929184
0.00929184
0.00929184
0.00929184
0.00929184
0.00929184
0.00929184
0.00929184
0.00929184
0.00929184
0.00929184
0.00929184
0.00929184
0.00929184
0.00929184
0.00929184
0.00929184
0.00929184
0.00929184
0.00929184
0.00929184
0.00929184
0.00929184
0.00929184
0.00929184
0.00929184
0.00929184
0.00929184
0.00929184
0.00929184
0.00929184
0.00929184
0.00929184
0.00929184
0.00929184
0.00929184
0.00929184
0.00929184
0.00929184
0.00929184
0.00929184
0.00929184
0.00929184
0.00929184
0.00929184
0.00929184
0.00929184
0.00929184
0.00929184
0.00929184
0.00929184
0.00929184
0.00929184
0.00929184
0.00929184
0.00929184
0.00929184
0.00929184
0.00929184
0.00929184
0.00929184
0.00929184
0.00929184
0.00929184
0.00929184
0.00929184
0.00929184
0.00929184
0.00929184
0.00929184
0.00929184
0.00929184
0.00929184
0.00929184
0.00929184
0.00929184
0.00929184
0.00929184
0.00929184
0.00929184
0.00929184
0.00929184
0.00929184
0.00929184
0.00929184
0.00929184
0.00929184
0.00929184
0.00929184
0.00929184
0.00929184
0.00929184
0.00929184
0.00929184
0.00929184
0.00929184
0.00929184
0.00929184
0.00929184
0.00929184
0.00929184
0.00929184
0.00929184
0.00929184
0.00929184
0.00929184
0.00929184
0.00929184
0.00929184
0.00929184
0.00929184
0.00929184
0.00929184
0.00929184
0.00929184
0.00929184
0.00929184
0.00929184
0.00929184
0.00929184
0.00929184
0.00929184
0.00929184
0.00929184
0.00929184
0.00929184
0.00929184
0.00929184
0.00929184
0.00929184
0.00929184
0.00929184
0.00929184
0.00929184
0.00929184
0.00929184
0.00929184
0.00929184
0.00929184
0.00929184
0.00929184
0.00929184
0.00929184
0.00929184
0.00929184
0.00929184
0.00929184
0.00929184
0.00949554
0.00949554
0.00949554
0.00949554
0.00949554
0.00949554
0.00949554
0.00949554
0.00949554
0.00949554
0.00949554
0.00949554
0.00949554
0.00949554
0.00949554
0.00949554
0.00949554
0.00949554
0.00949554
0.00949554
0.00949554
0.00949554
0.00949554
0.00949554
0.00949554
0.00949554
0.00949554
0.00949554
0.00949554
0.00949554
0.00949554
0.00949554
0.00949554
0.00949554
0.00949554
0.00949554
0.00949554
0.00949554
0.00949554
0.00949554
0.00949554
0.00949554
0.00949554
0.00949554
0.00949554
0.00949554
0.00949554
0.00949554
0.00949554
0.00949554
0.00949554
0.00949554
0.00949554
0.00949554
0.00949554
0.00949554
0.00949554
0.00949554
0.00949554
0.00949554
0.00949554
0.00949554
0.00949554
0.00949554
0.00949554
0.00949554
0.00949554
0.00949554
0.00949554
0.00949554
0.00949554
0.00949554
0.00949554
0.00949554
0.00949554
0.00949554
0.00949554
0.00949554
0.00949554
0.00949554
0.00949554
0.00949554
0.00949554
0.00949554
0.00949554
0.00949554
0.00949554
0.00949554
0.00949554
0.00949554
0.00949554
0.00949554
0.00949554
0.00949554
0.00949554
0.00949554
0.00949554
0.00949554
0.00949554
0.00949554
0.00949554
0.00949554
0.00949554
0.00949554
0.00949554
0.00949554
0.00949554
0.00949554
0.00949554
0.00949554
0.00949554
0.00949554
0.00949554
0.00949554
0.00949554
0.00949554
0.00949554
0.00949554
0.00949554
0.00949554
0.00949554
0.00949554
0.00949554
0.00949554
0.00949554
0.00949554
0.00949554
0.00949554
0.00949554
0.00949554
0.00949554
0.00949554
0.00949554
0.00949554
0.00949554
0.00949554
0.00949554
0.00949554
0.00949554
0.00949554
0.00949554
0.00949554
0.00949554
0.00949554
0.00949554
0.00949554
0.00949554
0.00949554
0.00949554
0.00949554
0.00949554
0.00949554
0.00949554
0.00949554
0.00949554
0.00949554
0.00949554
0.00949554
0.00949554
0.00949554
0.00949554
0.00949554
0.00949554
0.00949554
0.00949554
0.00949554
0.00949554
0.00949554
0.00949554
0.00949554
0.00949554
0.00949554
0.00949554
0.00949554
0.00949554
0.00949554
0.00949554
0.00949554
0.00949554
0.00949554
0.00949554
0.00949554
0.00949554
0.00949554
0.00949554
0.00949554
0.00949554
0.00949554
0.00949554
0.00949554
0.00949554
0.00949554
0.00949554
0.00949554
0.00949554
0.00949554
0.00949554
0.00949554
0.00949554
0.00949554
0.00969794
0.00969794
0.00969794
0.00969794
0.00969794
0.00969794
0.00969794
0.00969794
0.00969794
0.00969794
0.00969794
0.00969794
0.00969794
0.00969794
0.00969794
0.00969794
0.00969794
0.00969794
0.00969794
0.00969794
0.00969794
0.00969794
0.00969794
0.00969794
0.00969794
0.00969794
0.00969794
0.00969794
0.00969794
0.00969794
0.00969794
0.00969794
0.00969794
0.00969794
0.00969794
0.00969794
0.00969794
0.00969794
0.00969794
0.00969794
0.00969794
0.00969794
0.00969794
0.00969794
0.00969794
0.00969794
0.00969794
0.00969794
0.00969794
0.00969794
0.00969794
0.00969794
0.00969794
0.00969794
0.00969794
0.00969794
0.00969794
0.00969794
0.00969794
0.00969794
0.00969794
0.00969794
0.00969794
0.00969794
0.00969794
0.00969794
0.00969794
0.00969794
0.00969794
0.00969794
0.00969794
0.00969794
0.00969794
0.00969794
0.00969794
0.00969794
0.00969794
0.00969794
0.00969794
0.00969794
0.00969794
0.00969794
0.00969794
0.00969794
0.00969794
0.00969794
0.00969794
0.00969794
0.00969794
0.00969794
0.00969794
0.00969794
0.00969794
0.00969794
0.00969794
0.00969794
0.00969794
0.00969794
0.00969794
0.00969794
0.00969794
0.00969794
0.00969794
0.00969794
0.00969794
0.00969794
0.00969794
0.00969794
0.00969794
0.00969794
0.00969794
0.00969794
0.00969794
0.00969794
0.00969794
0.00969794
0.00969794
0.00969794
0.00969794
0.00969794
0.00969794
0.00969794
0.00969794
0.00969794
0.00969794
0.00969794
0.00969794
0.00969794
0.00969794
0.00969794
0.00969794
0.00969794
0.00969794
0.00969794
0.00969794
0.00969794
0.00969794
0.00969794
0.00969794
0.00969794
0.00969794
0.00969794
0.00969794
0.00969794
0.00969794
0.00969794
0.00969794
0.00969794
0.00969794
0.00969794
0.00969794
0.00969794
0.00969794
0.00969794
0.00969794
0.00969794
0.00969794
0.00969794
0.00969794
0.00969794
0.00969794
0.00969794
0.00969794
0.00969794
0.00969794
0.00969794
0.00969794
0.00969794
0.00969794
0.00969794
0.00969794
0.00969794
0.00969794
0.00969794
0.00969794
0.00969794
0.00969794
0.00969794
0.00969794
0.00969794
0.00969794
0.00969794
0.00969794
0.00969794
0.00969794
0.00969794
0.00969794
0.00969794
0.00969794
0.00969794
0.00969794
0.00969794
0.00969794
0.00969794
0.00969794
0.00969794
0.00969794
0.00969794
0.00969794
0.00969794
0.00989902
0.00989902
0.00989902
0.00989902
0.00989902
0.00989902
0.00989902
0.00989902
0.00989902
0.00989902
0.00989902
0.00989902
0.00989902
0.00989902
0.00989902
0.00989902
0.00989902
0.00989902
0.00989902
0.00989902
0.00989902
0.00989902
0.00989902
0.00989902
0.00989902
0.00989902
0.00989902
0.00989902
0.00989902
0.00989902
0.00989902
0.00989902
0.00989902
0.00989902
0.00989902
0.00989902
0.00989902
0.00989902
0.00989902
0.00989902
0.00989902
0.00989902
0.00989902
0.00989902
0.00989902
0.00989902
0.00989902
0.00989902
0.00989902
0.00989902
0.00989902
0.00989902
0.00989902
0.00989902
0.00989902
0.00989902
0.00989902
0.00989902
0.00989902
0.00989902
0.00989902
0.00989902
0.00989902
0.00989902
0.00989902
0.00989902
0.00989902
0.00989902
0.00989902
0.00989902
0.00989902
0.00989902
0.00989902
0.00989902
0.00989902
0.00989902
0.00989902
0.00989902
0.00989902
0.00989902
0.00989902
0.00989902
0.00989902
0.00989902
0.00989902
0.00989902
0.00989902
0.00989902
0.00989902
0.00989902
0.00989902
0.00989902
0.00989902
0.00989902
0.00989902
0.00989902
0.00989902
0.00989902
0.00989902
0.00989902
0.00989902
0.00989902
0.00989902
0.00989902
0.00989902
0.00989902
0.00989902
0.00989902
0.00989902
0.00989902
0.00989902
0.00989902
0.00989902
0.00989902
0.00989902
0.00989902
0.00989902
0.00989902
0.00989902
0.00989902
0.00989902
0.00989902
0.00989902
0.00989902
0.00989902
0.00989902
0.00989902
0.00989902
0.00989902
0.00989902
0.00989902
0.00989902
0.00989902
0.00989902
0.00989902
0.00989902
0.00989902
0.00989902
0.00989902
0.00989902
0.00989902
0.00989902
0.00989902
0.00989902
0.00989902
0.00989902
0.00989902
0.00989902
0.00989902
0.00989902
0.00989902
0.00989902
0.00989902
0.00989902
0.00989902
0.00989902
0.00989902
0.00989902
0.00989902
0.00989902
0.00989902
0.00989902
0.00989902
0.00989902
0.00989902
0.00989902
0.00989902
0.00989902
0.00989902
0.00989902
0.00989902
0.00989902
0.00989902
0.00989902
0.00989902
0.00989902
0.00989902
0.00989902
0.00989902
0.00989902
0.00989902
0.00989902
0.00989902
0.00989902
0.00989902
0.00989902
0.00989902
0.00989902
0.00989902
0.00989902
0.00989902
0.00989902
0.00989902
0.00989902
0.00989902
0.00989902
0.00989902
0.00989902
0.00989902
0.00989902
0.0100988
0.0100988
0.0100988
0.0100988
0.0100988
0.0100988
0.0100988
0.0100988
0.0100988
0.0100988
0.0100988
0.0100988
0.0100988
0.0100988
0.0100988
0.0100988
0.0100988
0.0100988
0.0100988
0.0100988
0.0100988
0.0100988
0.0100988
0.0100988
0.0100988
0.0100988
0.0100988
0.0100988
0.0100988
0.0100988
0.0100988
0.0100988
0.0100988
0.0100988
0.0100988
0.0100988
0.0100988
0.0100988
0.0100988
0.0100988
0.0100988
0.0100988
0.0100988
0.0100988
0.0100988
0.0100988
0.0100988
0.0100988
0.0100988
0.0100988
0.0100988
0.0100988
0.0100988
0.0100988
0.0100988
0.0100988
0.0100988
0.0100988
0.0100988
0.0100988
0.0100988
0.0100988
0.0100988
0.0100988
0.0100988
0.0100988
0.0100988
0.0100988
0.0100988
0.0100988
0.0100988
0.0100988
0.0100988
0.0100988
0.0100988
0.0100988
0.0100988
0.0100988
0.0100988
0.0100988
0.0100988
0.0100988
0.0100988
0.0100988
0.0100988
0.0100988
0.0100988
0.0100988
0.0100988
0.0100988
0.0100988
0.0100988
0.0100988
0.0100988
0.0100988
0.0100988
0.0100988
0.0100988
0.0100988
0.0100988
0.0100988
0.0100988
0.0100988
0.0100988
0.0100988
0.0100988
0.0100988
0.0100988
0.0100988
0.0100988
0.0100988
0.0100988
0.0100988
0.0100988
0.0100988
0.0100988
0.0100988
0.0100988
0.0100988
0.0100988
0.0100988
0.0100988
0.0100988
0.0100988
0.0100988
0.0100988
0.0100988
0.0100988
0.0100988
0.0100988
0.0100988
0.0100988
0.0100988
0.0100988
0.0100988
0.0100988
0.0100988
0.0100988
0.0100988
0.0100988
0.0100988
0.0100988
0.0100988
0.0100988
0.0100988
0.0100988
0.0100988
0.0100988
0.0100988
0.0100988
0.0100988
0.0100988
0.0100988
0.0100988
0.0100988
0.0100988
0.0100988
0.0100988
0.0100988
0.0100988
0.0100988
0.0100988
0.0100988
0.0100988
0.0100988
0.0100988
0.0100988
0.0100988
0.0100988
0.0100988
0.0100988
0.0100988
0.0100988
0.0100988
0.0100988
0.0100988
0.0100988
0.0100988
0.0100988
0.0100988
0.0100988
0.0100988
0.0100988
0.0100988
0.0100988
0.0100988
0.0100988
0.0100988
0.0100988
0.0100988
0.0100988
0.0100988
0.0100988
0.0100988
0.0100988
0.0100988
0.0100988
0.0100988
0.0100988
0.0100988
0.0102971
0.0102971
0.0102971
0.0102971
0.0102971
0.0102971
0.0102971
0.0102971
0.0102971
0.0102971
0.0102971
0.0102971
0.0102971
0.0102971
0.0102971
0.0102971
0.0102971
0.0102971
0.0102971
0.0102971
0.0102971
0.0102971
0.0102971
0.0102971
0.0102971
0.0102971
0.0102971
0.0102971
0.0102971
0.0102971
0.0102971
0.0102971
0.0102971
0.0102971
0.0102971
0.0102971
0.0102971
0.0102971
0.0102971
0.0102971
0.0102971
0.0102971
0.0102971
0.0102971
0.0102971
0.0102971
0.0102971
0.0102971
0.0102971
0.0102971
0.0102971
0.0102971
0.0102971
0.0102971
0.0102971
0.0102971
0.0102971
0.0102971
0.0102971
0.0102971
0.0102971
0.0102971
0.0102971
0.0102971
0.0102971
0.0102971
0.0102971
0.0102971
0.0102971
0.0102971
0.0102971
0.0102971
0.0102971
0.0102971
0.0102971
0.0102971
0.0102971
0.0102971
0.0102971
0.0102971
0.0102971
0.0102971
0.0102971
0.0102971
0.0102971
0.0102971
0.0102971
0.0102971
0.0102971
0.0102971
0.0102971
0.0102971
0.0102971
0.0102971
0.0102971
0.0102971
0.0102971
0.0102971
0.0102971
0.0102971
0.0102971
0.0102971
0.0102971
0.0102971
0.0102971
0.0102971
0.0102971
0.0102971
0.0102971
0.0102971
0.0102971
0.0102971
0.0102971
0.0102971
0.0102971
0.0102971
0.0102971
0.0102971
0.0102971
0.0102971
0.0102971
0.0102971
0.0102971
0.0102971
0.0102971
0.0102971
0.0102971
0.0102971
0.0102971
0.0102971
0.0102971
0.0102971
0.0102971
0.0102971
0.0102971
0.0102971
0.0102971
0.0102971
0.0102971
0.0102971
0.0102971
0.0102971
0.0102971
0.0102971
0.0102971
0.0102971
0.0102971
0.0102971
0.0102971
0.0102971
0.0102971
0.0102971
0.0102971
0.0102971
0.0102971
0.0102971
0.0102971
0.0102971
0.0102971
0.0102971
0.0102971
0.0102971
0.0102971
0.0102971
0.0102971
0.0102971
0.0102971
0.0102971
0.0102971
0.0102971
0.0102971
0.0102971
0.0102971
0.0102971
0.0102971
0.0102971
0.0102971
0.0102971
0.0102971
0.0102971
0.0102971
0.0102971
0.0102971
0.0102971
0.0102971
0.0102971
0.0102971
0.0102971
0.0102971
0.0102971
0.0102971
0.0102971
0.0102971
0.0102971
0.0102971
0.0102971
0.0102971
0.0102971
0.0102971
0.0102971
0.0104941
0.0104941
0.0104941
0.0104941
0.0104941
0.0104941
0.0104941
0.0104941
0.0104941
0.0104941
0.0104941
0.0104941
0.0104941
0.0104941
0.0104941
0.0104941
0.0104941
0.0104941
0.0104941
0.0104941
0.0104941
0.0104941
0.0104941
0.0104941
0.0104941
0.0104941
0.0104941
0.0104941
0.0104941
0.0104941
0.0104941
0.0104941
0.0104941
0.0104941
0.0104941
0.0104941
0.0104941
0.0104941
0.0104941
0.0104941
0.0104941
0.0104941
0.0104941
0.0104941
0.0104941
0.0104941
0.0104941
0.0104941
0.0104941
0.0104941
0.0104941
0.0104941
0.0104941
0.0104941
0.0104941
0.0104941
0.0104941
0.0104941
0.0104941
0.0104941
0.0104941
0.0104941
0.0104941
0.0104941
0.0104941
0.0104941
0.0104941
0.0104941
0.0104941
0.0104941
0.0104941
0.0104941
0.0104941
0.0104941
0.0104941
0.0104941
0.0104941
0.0104941
0.0104941
0.0104941
0.0104941
0.0104941
0.0104941
0.0104941
0.0104941
0.0104941
0.0104941
0.0104941
0.0104941
0.0104941
0.0104941
0.0104941
0.0104941
0.0104941
0.0104941
0.0104941
0.0104941
0.0104941
0.0104941
0.0104941
0.0104941
0.0104941
0.0104941
0.0104941
0.0104941
0.0104941
0.0104941
0.0104941
0.0104941
0.0104941
0.0104941
0.0104941
0.0104941
0.0104941
0.0104941
0.0104941
0.0104941
0.0104941
0.0104941
0.0104941
0.0104941
0.0104941
0.0104941
0.0104941
0.0104941
0.0104941
0.0104941
0.0104941
0.0104941
0.0104941
0.0104941
0.0104941
0.0104941
0.0104941
0.0104941
0.0104941
0.0104941
0.0104941
0.0104941
0.0104941
0.0104941
0.0104941
0.0104941
0.0104941
0.0104941
0.0104941
0.0104941
0.0104941
0.0104941
0.0104941
0.0104941
0.0104941
0.0104941
0.0104941
0.0104941
0.0104941
0.0104941
0.0104941
0.0104941
0.0104941
0.0104941
0.0104941
0.0104941
0.0104941
0.0104941
0.0104941
0.0104941
0.0104941
0.0104941
0.0104941
0.0104941
0.0104941
0.0104941
0.0104941
0.0104941
0.0104941
0.0104941
0.0104941
0.0104941
0.0104941
0.0104941
0.0104941
0.0104941
0.0104941
0.0104941
0.0104941
0.0104941
0.0104941
0.0104941
0.0104941
0.0104941
0.0104941
0.0104941
0.0104941
0.0104941
0.0104941
0.0104941
0.0104941
0.0104941
0.0104941
0.0106897
0.0106897
0.0106897
0.0106897
0.0106897
0.0106897
0.0106897
0.0106897
0.0106897
0.0106897
0.0106897
0.0106897
0.0106897
0.0106897
0.0106897
0.0106897
0.0106897
0.0106897
0.0106897
0.0106897
0.0106897
0.0106897
0.0106897
0.0106897
0.0106897
0.0106897
0.0106897
0.0106897
0.0106897
0.0106897
0.0106897
0.0106897
0.0106897
0.0106897
0.0106897
0.0106897
0.0106897
0.0106897
0.0106897
0.0106897
0.0106897
0.0106897
0.0106897
0.0106897
0.0106897
0.0106897
0.0106897
0.0106897
0.0106897
0.0106897
0.0106897
0.0106897
0.0106897
0.0106897
0.0106897
0.0106897
0.0106897
0.0106897
0.0106897
0.0106897
0.0106897
0.0106897
0.0106897
0.0106897
0.0106897
0.0106897
0.0106897
0.0106897
0.0106897
0.0106897
0.0106897
0.0106897
0.0106897
0.0106897
0.0106897
0.0106897
0.0106897
0.0106897
0.0106897
0.0106897
0.0106897
0.0106897
0.0106897
0.0106897
0.0106897
0.0106897
0.0106897
0.0106897
0.0106897
0.0106897
0.0106897
0.0106897
0.0106897
0.0106897
0.0106897
0.0106897
0.0106897
0.0106897
0.0106897
0.0106897
0.0106897
0.0106897
0.0106897
0.0106897
0.0106897
0.0106897
0.0106897
0.0106897
0.0106897
0.0106897
0.0106897
0.0106897
0.0106897