/*--------------------------------*- C++ -*----------------------------------*\
| =========                 |                                                 |
| \\      /  F ield         | OpenFOAM: The Open Source CFD Toolbox           |
|  \\    /   O peration     | Version:  3.0.1                                 |
|   \\  /    A nd           | Web:      www.OpenFOAM.org                      |
|    \\/     M anipulation  |                                                 |
\*---------------------------------------------------------------------------*/
FoamFile
{
    version     2.0;
    format      ascii;
    class       volScalarField;
    location    "constant";
    object      thetaRef;
}
// * * * * * * * * * * * * * * * * * * * * * * * * * * * * * * * * * * * * * //

dimensions      [0 0 0 1 0 0 0];

internalField   nonuniform List<scalar> 
40000
(
290.015
290.015
290.015
290.015
290.015
290.015
290.015
290.015
290.015
290.015
290.015
290.015
290.015
290.015
290.015
290.015
290.015
290.015
290.015
290.015
290.015
290.015
290.015
290.015
290.015
290.015
290.015
290.015
290.015
290.015
290.015
290.015
290.015
290.015
290.015
290.015
290.015
290.015
290.015
290.015
290.015
290.015
290.015
290.015
290.015
290.015
290.015
290.015
290.015
290.015
290.015
290.015
290.015
290.015
290.015
290.015
290.015
290.015
290.015
290.015
290.015
290.015
290.015
290.015
290.015
290.015
290.015
290.015
290.015
290.015
290.015
290.015
290.015
290.015
290.015
290.015
290.015
290.015
290.015
290.015
290.015
290.015
290.015
290.015
290.015
290.015
290.015
290.015
290.015
290.015
290.015
290.015
290.015
290.015
290.015
290.015
290.015
290.015
290.015
290.015
290.015
290.015
290.015
290.015
290.015
290.015
290.015
290.015
290.015
290.015
290.015
290.015
290.015
290.015
290.015
290.015
290.015
290.015
290.015
290.015
290.015
290.015
290.015
290.015
290.015
290.015
290.015
290.015
290.015
290.015
290.015
290.015
290.015
290.015
290.015
290.015
290.015
290.015
290.015
290.015
290.015
290.015
290.015
290.015
290.015
290.015
290.015
290.015
290.015
290.015
290.015
290.015
290.015
290.015
290.015
290.015
290.015
290.015
290.015
290.015
290.015
290.015
290.015
290.015
290.015
290.015
290.015
290.015
290.015
290.015
290.015
290.015
290.015
290.015
290.015
290.015
290.015
290.015
290.015
290.015
290.015
290.015
290.015
290.015
290.015
290.015
290.015
290.015
290.015
290.015
290.015
290.015
290.015
290.015
290.015
290.015
290.015
290.015
290.015
290.015
290.543
290.543
290.543
290.543
290.543
290.543
290.543
290.543
290.543
290.543
290.543
290.543
290.543
290.543
290.543
290.543
290.543
290.543
290.543
290.543
290.543
290.543
290.543
290.543
290.543
290.543
290.543
290.543
290.543
290.543
290.543
290.543
290.543
290.543
290.543
290.543
290.543
290.543
290.543
290.543
290.543
290.543
290.543
290.543
290.543
290.543
290.543
290.543
290.543
290.543
290.543
290.543
290.543
290.543
290.543
290.543
290.543
290.543
290.543
290.543
290.543
290.543
290.543
290.543
290.543
290.543
290.543
290.543
290.543
290.543
290.543
290.543
290.543
290.543
290.543
290.543
290.543
290.543
290.543
290.543
290.543
290.543
290.543
290.543
290.543
290.543
290.543
290.543
290.543
290.543
290.543
290.543
290.543
290.543
290.543
290.543
290.543
290.543
290.543
290.543
290.543
290.543
290.543
290.543
290.543
290.543
290.543
290.543
290.543
290.543
290.543
290.543
290.543
290.543
290.543
290.543
290.543
290.543
290.543
290.543
290.543
290.543
290.543
290.543
290.543
290.543
290.543
290.543
290.543
290.543
290.543
290.543
290.543
290.543
290.543
290.543
290.543
290.543
290.543
290.543
290.543
290.543
290.543
290.543
290.543
290.543
290.543
290.543
290.543
290.543
290.543
290.543
290.543
290.543
290.543
290.543
290.543
290.543
290.543
290.543
290.543
290.543
290.543
290.543
290.543
290.543
290.543
290.543
290.543
290.543
290.543
290.543
290.543
290.543
290.543
290.543
290.543
290.543
290.543
290.543
290.543
290.543
290.543
290.543
290.543
290.543
290.543
290.543
290.543
290.543
290.543
290.543
290.543
290.543
290.543
290.543
290.543
290.543
290.543
290.543
291.069
291.069
291.069
291.069
291.069
291.069
291.069
291.069
291.069
291.069
291.069
291.069
291.069
291.069
291.069
291.069
291.069
291.069
291.069
291.069
291.069
291.069
291.069
291.069
291.069
291.069
291.069
291.069
291.069
291.069
291.069
291.069
291.069
291.069
291.069
291.069
291.069
291.069
291.069
291.069
291.069
291.069
291.069
291.069
291.069
291.069
291.069
291.069
291.069
291.069
291.069
291.069
291.069
291.069
291.069
291.069
291.069
291.069
291.069
291.069
291.069
291.069
291.069
291.069
291.069
291.069
291.069
291.069
291.069
291.069
291.069
291.069
291.069
291.069
291.069
291.069
291.069
291.069
291.069
291.069
291.069
291.069
291.069
291.069
291.069
291.069
291.069
291.069
291.069
291.069
291.069
291.069
291.069
291.069
291.069
291.069
291.069
291.069
291.069
291.069
291.069
291.069
291.069
291.069
291.069
291.069
291.069
291.069
291.069
291.069
291.069
291.069
291.069
291.069
291.069
291.069
291.069
291.069
291.069
291.069
291.069
291.069
291.069
291.069
291.069
291.069
291.069
291.069
291.069
291.069
291.069
291.069
291.069
291.069
291.069
291.069
291.069
291.069
291.069
291.069
291.069
291.069
291.069
291.069
291.069
291.069
291.069
291.069
291.069
291.069
291.069
291.069
291.069
291.069
291.069
291.069
291.069
291.069
291.069
291.069
291.069
291.069
291.069
291.069
291.069
291.069
291.069
291.069
291.069
291.069
291.069
291.069
291.069
291.069
291.069
291.069
291.069
291.069
291.069
291.069
291.069
291.069
291.069
291.069
291.069
291.069
291.069
291.069
291.069
291.069
291.069
291.069
291.069
291.069
291.069
291.069
291.069
291.069
291.069
291.069
291.596
291.596
291.596
291.596
291.596
291.596
291.596
291.596
291.596
291.596
291.596
291.596
291.596
291.596
291.596
291.596
291.596
291.596
291.596
291.596
291.596
291.596
291.596
291.596
291.596
291.596
291.596
291.596
291.596
291.596
291.596
291.596
291.596
291.596
291.596
291.596
291.596
291.596
291.596
291.596
291.596
291.596
291.596
291.596
291.596
291.596
291.596
291.596
291.596
291.596
291.596
291.596
291.596
291.596
291.596
291.596
291.596
291.596
291.596
291.596
291.596
291.596
291.596
291.596
291.596
291.596
291.596
291.596
291.596
291.596
291.596
291.596
291.596
291.596
291.596
291.596
291.596
291.596
291.596
291.596
291.596
291.596
291.596
291.596
291.596
291.596
291.596
291.596
291.596
291.596
291.596
291.596
291.596
291.596
291.596
291.596
291.596
291.596
291.596
291.596
291.596
291.596
291.596
291.596
291.596
291.596
291.596
291.596
291.596
291.596
291.596
291.596
291.596
291.596
291.596
291.596
291.596
291.596
291.596
291.596
291.596
291.596
291.596
291.596
291.596
291.596
291.596
291.596
291.596
291.596
291.596
291.596
291.596
291.596
291.596
291.596
291.596
291.596
291.596
291.596
291.596
291.596
291.596
291.596
291.596
291.596
291.596
291.596
291.596
291.596
291.596
291.596
291.596
291.596
291.596
291.596
291.596
291.596
291.596
291.596
291.596
291.596
291.596
291.596
291.596
291.596
291.596
291.596
291.596
291.596
291.596
291.596
291.596
291.596
291.596
291.596
291.596
291.596
291.596
291.596
291.596
291.596
291.596
291.596
291.596
291.596
291.596
291.596
291.596
291.596
291.596
291.596
291.596
291.596
291.596
291.596
291.596
291.596
291.596
291.596
292.122
292.122
292.122
292.122
292.122
292.122
292.122
292.122
292.122
292.122
292.122
292.122
292.122
292.122
292.122
292.122
292.122
292.122
292.122
292.122
292.122
292.122
292.122
292.122
292.122
292.122
292.122
292.122
292.122
292.122
292.122
292.122
292.122
292.122
292.122
292.122
292.122
292.122
292.122
292.122
292.122
292.122
292.122
292.122
292.122
292.122
292.122
292.122
292.122
292.122
292.122
292.122
292.122
292.122
292.122
292.122
292.122
292.122
292.122
292.122
292.122
292.122
292.122
292.122
292.122
292.122
292.122
292.122
292.122
292.122
292.122
292.122
292.122
292.122
292.122
292.122
292.122
292.122
292.122
292.122
292.122
292.122
292.122
292.122
292.122
292.122
292.122
292.122
292.122
292.122
292.122
292.122
292.122
292.122
292.122
292.122
292.122
292.122
292.122
292.122
292.122
292.122
292.122
292.122
292.122
292.122
292.122
292.122
292.122
292.122
292.122
292.122
292.122
292.122
292.122
292.122
292.122
292.122
292.122
292.122
292.122
292.122
292.122
292.122
292.122
292.122
292.122
292.122
292.122
292.122
292.122
292.122
292.122
292.122
292.122
292.122
292.122
292.122
292.122
292.122
292.122
292.122
292.122
292.122
292.122
292.122
292.122
292.122
292.122
292.122
292.122
292.122
292.122
292.122
292.122
292.122
292.122
292.122
292.122
292.122
292.122
292.122
292.122
292.122
292.122
292.122
292.122
292.122
292.122
292.122
292.122
292.122
292.122
292.122
292.122
292.122
292.122
292.122
292.122
292.122
292.122
292.122
292.122
292.122
292.122
292.122
292.122
292.122
292.122
292.122
292.122
292.122
292.122
292.122
292.122
292.122
292.122
292.122
292.122
292.122
292.648
292.648
292.648
292.648
292.648
292.648
292.648
292.648
292.648
292.648
292.648
292.648
292.648
292.648
292.648
292.648
292.648
292.648
292.648
292.648
292.648
292.648
292.648
292.648
292.648
292.648
292.648
292.648
292.648
292.648
292.648
292.648
292.648
292.648
292.648
292.648
292.648
292.648
292.648
292.648
292.648
292.648
292.648
292.648
292.648
292.648
292.648
292.648
292.648
292.648
292.648
292.648
292.648
292.648
292.648
292.648
292.648
292.648
292.648
292.648
292.648
292.648
292.648
292.648
292.648
292.648
292.648
292.648
292.648
292.648
292.648
292.648
292.648
292.648
292.648
292.648
292.648
292.648
292.648
292.648
292.648
292.648
292.648
292.648
292.648
292.648
292.648
292.648
292.648
292.648
292.648
292.648
292.648
292.648
292.648
292.648
292.648
292.648
292.648
292.648
292.648
292.648
292.648
292.648
292.648
292.648
292.648
292.648
292.648
292.648
292.648
292.648
292.648
292.648
292.648
292.648
292.648
292.648
292.648
292.648
292.648
292.648
292.648
292.648
292.648
292.648
292.648
292.648
292.648
292.648
292.648
292.648
292.648
292.648
292.648
292.648
292.648
292.648
292.648
292.648
292.648
292.648
292.648
292.648
292.648
292.648
292.648
292.648
292.648
292.648
292.648
292.648
292.648
292.648
292.648
292.648
292.648
292.648
292.648
292.648
292.648
292.648
292.648
292.648
292.648
292.648
292.648
292.648
292.648
292.648
292.648
292.648
292.648
292.648
292.648
292.648
292.648
292.648
292.648
292.648
292.648
292.648
292.648
292.648
292.648
292.648
292.648
292.648
292.648
292.648
292.648
292.648
292.648
292.648
292.648
292.648
292.648
292.648
292.648
292.648
293.173
293.173
293.173
293.173
293.173
293.173
293.173
293.173
293.173
293.173
293.173
293.173
293.173
293.173
293.173
293.173
293.173
293.173
293.173
293.173
293.173
293.173
293.173
293.173
293.173
293.173
293.173
293.173
293.173
293.173
293.173
293.173
293.173
293.173
293.173
293.173
293.173
293.173
293.173
293.173
293.173
293.173
293.173
293.173
293.173
293.173
293.173
293.173
293.173
293.173
293.173
293.173
293.173
293.173
293.173
293.173
293.173
293.173
293.173
293.173
293.173
293.173
293.173
293.173
293.173
293.173
293.173
293.173
293.173
293.173
293.173
293.173
293.173
293.173
293.173
293.173
293.173
293.173
293.173
293.173
293.173
293.173
293.173
293.173
293.173
293.173
293.173
293.173
293.173
293.173
293.173
293.173
293.173
293.173
293.173
293.173
293.173
293.173
293.173
293.173
293.173
293.173
293.173
293.173
293.173
293.173
293.173
293.173
293.173
293.173
293.173
293.173
293.173
293.173
293.173
293.173
293.173
293.173
293.173
293.173
293.173
293.173
293.173
293.173
293.173
293.173
293.173
293.173
293.173
293.173
293.173
293.173
293.173
293.173
293.173
293.173
293.173
293.173
293.173
293.173
293.173
293.173
293.173
293.173
293.173
293.173
293.173
293.173
293.173
293.173
293.173
293.173
293.173
293.173
293.173
293.173
293.173
293.173
293.173
293.173
293.173
293.173
293.173
293.173
293.173
293.173
293.173
293.173
293.173
293.173
293.173
293.173
293.173
293.173
293.173
293.173
293.173
293.173
293.173
293.173
293.173
293.173
293.173
293.173
293.173
293.173
293.173
293.173
293.173
293.173
293.173
293.173
293.173
293.173
293.173
293.173
293.173
293.173
293.173
293.173
293.698
293.698
293.698
293.698
293.698
293.698
293.698
293.698
293.698
293.698
293.698
293.698
293.698
293.698
293.698
293.698
293.698
293.698
293.698
293.698
293.698
293.698
293.698
293.698
293.698
293.698
293.698
293.698
293.698
293.698
293.698
293.698
293.698
293.698
293.698
293.698
293.698
293.698
293.698
293.698
293.698
293.698
293.698
293.698
293.698
293.698
293.698
293.698
293.698
293.698
293.698
293.698
293.698
293.698
293.698
293.698
293.698
293.698
293.698
293.698
293.698
293.698
293.698
293.698
293.698
293.698
293.698
293.698
293.698
293.698
293.698
293.698
293.698
293.698
293.698
293.698
293.698
293.698
293.698
293.698
293.698
293.698
293.698
293.698
293.698
293.698
293.698
293.698
293.698
293.698
293.698
293.698
293.698
293.698
293.698
293.698
293.698
293.698
293.698
293.698
293.698
293.698
293.698
293.698
293.698
293.698
293.698
293.698
293.698
293.698
293.698
293.698
293.698
293.698
293.698
293.698
293.698
293.698
293.698
293.698
293.698
293.698
293.698
293.698
293.698
293.698
293.698
293.698
293.698
293.698
293.698
293.698
293.698
293.698
293.698
293.698
293.698
293.698
293.698
293.698
293.698
293.698
293.698
293.698
293.698
293.698
293.698
293.698
293.698
293.698
293.698
293.698
293.698
293.698
293.698
293.698
293.698
293.698
293.698
293.698
293.698
293.698
293.698
293.698
293.698
293.698
293.698
293.698
293.698
293.698
293.698
293.698
293.698
293.698
293.698
293.698
293.698
293.698
293.698
293.698
293.698
293.698
293.698
293.698
293.698
293.698
293.698
293.698
293.698
293.698
293.698
293.698
293.698
293.698
293.698
293.698
293.698
293.698
293.698
293.698
294.222
294.222
294.222
294.222
294.222
294.222
294.222
294.222
294.222
294.222
294.222
294.222
294.222
294.222
294.222
294.222
294.222
294.222
294.222
294.222
294.222
294.222
294.222
294.222
294.222
294.222
294.222
294.222
294.222
294.222
294.222
294.222
294.222
294.222
294.222
294.222
294.222
294.222
294.222
294.222
294.222
294.222
294.222
294.222
294.222
294.222
294.222
294.222
294.222
294.222
294.222
294.222
294.222
294.222
294.222
294.222
294.222
294.222
294.222
294.222
294.222
294.222
294.222
294.222
294.222
294.222
294.222
294.222
294.222
294.222
294.222
294.222
294.222
294.222
294.222
294.222
294.222
294.222
294.222
294.222
294.222
294.222
294.222
294.222
294.222
294.222
294.222
294.222
294.222
294.222
294.222
294.222
294.222
294.222
294.222
294.222
294.222
294.222
294.222
294.222
294.222
294.222
294.222
294.222
294.222
294.222
294.222
294.222
294.222
294.222
294.222
294.222
294.222
294.222
294.222
294.222
294.222
294.222
294.222
294.222
294.222
294.222
294.222
294.222
294.222
294.222
294.222
294.222
294.222
294.222
294.222
294.222
294.222
294.222
294.222
294.222
294.222
294.222
294.222
294.222
294.222
294.222
294.222
294.222
294.222
294.222
294.222
294.222
294.222
294.222
294.222
294.222
294.222
294.222
294.222
294.222
294.222
294.222
294.222
294.222
294.222
294.222
294.222
294.222
294.222
294.222
294.222
294.222
294.222
294.222
294.222
294.222
294.222
294.222
294.222
294.222
294.222
294.222
294.222
294.222
294.222
294.222
294.222
294.222
294.222
294.222
294.222
294.222
294.222
294.222
294.222
294.222
294.222
294.222
294.222
294.222
294.222
294.222
294.222
294.222
294.746
294.746
294.746
294.746
294.746
294.746
294.746
294.746
294.746
294.746
294.746
294.746
294.746
294.746
294.746
294.746
294.746
294.746
294.746
294.746
294.746
294.746
294.746
294.746
294.746
294.746
294.746
294.746
294.746
294.746
294.746
294.746
294.746
294.746
294.746
294.746
294.746
294.746
294.746
294.746
294.746
294.746
294.746
294.746
294.746
294.746
294.746
294.746
294.746
294.746
294.746
294.746
294.746
294.746
294.746
294.746
294.746
294.746
294.746
294.746
294.746
294.746
294.746
294.746
294.746
294.746
294.746
294.746
294.746
294.746
294.746
294.746
294.746
294.746
294.746
294.746
294.746
294.746
294.746
294.746
294.746
294.746
294.746
294.746
294.746
294.746
294.746
294.746
294.746
294.746
294.746
294.746
294.746
294.746
294.746
294.746
294.746
294.746
294.746
294.746
294.746
294.746
294.746
294.746
294.746
294.746
294.746
294.746
294.746
294.746
294.746
294.746
294.746
294.746
294.746
294.746
294.746
294.746
294.746
294.746
294.746
294.746
294.746
294.746
294.746
294.746
294.746
294.746
294.746
294.746
294.746
294.746
294.746
294.746
294.746
294.746
294.746
294.746
294.746
294.746
294.746
294.746
294.746
294.746
294.746
294.746
294.746
294.746
294.746
294.746
294.746
294.746
294.746
294.746
294.746
294.746
294.746
294.746
294.746
294.746
294.746
294.746
294.746
294.746
294.746
294.746
294.746
294.746
294.746
294.746
294.746
294.746
294.746
294.746
294.746
294.746
294.746
294.746
294.746
294.746
294.746
294.746
294.746
294.746
294.746
294.746
294.746
294.746
294.746
294.746
294.746
294.746
294.746
294.746
294.746
294.746
294.746
294.746
294.746
294.746
295.269
295.269
295.269
295.269
295.269
295.269
295.269
295.269
295.269
295.269
295.269
295.269
295.269
295.269
295.269
295.269
295.269
295.269
295.269
295.269
295.269
295.269
295.269
295.269
295.269
295.269
295.269
295.269
295.269
295.269
295.269
295.269
295.269
295.269
295.269
295.269
295.269
295.269
295.269
295.269
295.269
295.269
295.269
295.269
295.269
295.269
295.269
295.269
295.269
295.269
295.269
295.269
295.269
295.269
295.269
295.269
295.269
295.269
295.269
295.269
295.269
295.269
295.269
295.269
295.269
295.269
295.269
295.269
295.269
295.269
295.269
295.269
295.269
295.269
295.269
295.269
295.269
295.269
295.269
295.269
295.269
295.269
295.269
295.269
295.269
295.269
295.269
295.269
295.269
295.269
295.269
295.269
295.269
295.269
295.269
295.269
295.269
295.269
295.269
295.269
295.269
295.269
295.269
295.269
295.269
295.269
295.269
295.269
295.269
295.269
295.269
295.269
295.269
295.269
295.269
295.269
295.269
295.269
295.269
295.269
295.269
295.269
295.269
295.269
295.269
295.269
295.269
295.269
295.269
295.269
295.269
295.269
295.269
295.269
295.269
295.269
295.269
295.269
295.269
295.269
295.269
295.269
295.269
295.269
295.269
295.269
295.269
295.269
295.269
295.269
295.269
295.269
295.269
295.269
295.269
295.269
295.269
295.269
295.269
295.269
295.269
295.269
295.269
295.269
295.269
295.269
295.269
295.269
295.269
295.269
295.269
295.269
295.269
295.269
295.269
295.269
295.269
295.269
295.269
295.269
295.269
295.269
295.269
295.269
295.269
295.269
295.269
295.269
295.269
295.269
295.269
295.269
295.269
295.269
295.269
295.269
295.269
295.269
295.269
295.269
295.791
295.791
295.791
295.791
295.791
295.791
295.791
295.791
295.791
295.791
295.791
295.791
295.791
295.791
295.791
295.791
295.791
295.791
295.791
295.791
295.791
295.791
295.791
295.791
295.791
295.791
295.791
295.791
295.791
295.791
295.791
295.791
295.791
295.791
295.791
295.791
295.791
295.791
295.791
295.791
295.791
295.791
295.791
295.791
295.791
295.791
295.791
295.791
295.791
295.791
295.791
295.791
295.791
295.791
295.791
295.791
295.791
295.791
295.791
295.791
295.791
295.791
295.791
295.791
295.791
295.791
295.791
295.791
295.791
295.791
295.791
295.791
295.791
295.791
295.791
295.791
295.791
295.791
295.791
295.791
295.791
295.791
295.791
295.791
295.791
295.791
295.791
295.791
295.791
295.791
295.791
295.791
295.791
295.791
295.791
295.791
295.791
295.791
295.791
295.791
295.791
295.791
295.791
295.791
295.791
295.791
295.791
295.791
295.791
295.791
295.791
295.791
295.791
295.791
295.791
295.791
295.791
295.791
295.791
295.791
295.791
295.791
295.791
295.791
295.791
295.791
295.791
295.791
295.791
295.791
295.791
295.791
295.791
295.791
295.791
295.791
295.791
295.791
295.791
295.791
295.791
295.791
295.791
295.791
295.791
295.791
295.791
295.791
295.791
295.791
295.791
295.791
295.791
295.791
295.791
295.791
295.791
295.791
295.791
295.791
295.791
295.791
295.791
295.791
295.791
295.791
295.791
295.791
295.791
295.791
295.791
295.791
295.791
295.791
295.791
295.791
295.791
295.791
295.791
295.791
295.791
295.791
295.791
295.791
295.791
295.791
295.791
295.791
295.791
295.791
295.791
295.791
295.791
295.791
295.791
295.791
295.791
295.791
295.791
295.791
296.312
296.312
296.312
296.312
296.312
296.312
296.312
296.312
296.312
296.312
296.312
296.312
296.312
296.312
296.312
296.312
296.312
296.312
296.312
296.312
296.312
296.312
296.312
296.312
296.312
296.312
296.312
296.312
296.312
296.312
296.312
296.312
296.312
296.312
296.312
296.312
296.312
296.312
296.312
296.312
296.312
296.312
296.312
296.312
296.312
296.312
296.312
296.312
296.312
296.312
296.312
296.312
296.312
296.312
296.312
296.312
296.312
296.312
296.312
296.312
296.312
296.312
296.312
296.312
296.312
296.312
296.312
296.312
296.312
296.312
296.312
296.312
296.312
296.312
296.312
296.312
296.312
296.312
296.312
296.312
296.312
296.312
296.312
296.312
296.312
296.312
296.312
296.312
296.312
296.312
296.312
296.312
296.312
296.312
296.312
296.312
296.312
296.312
296.312
296.312
296.312
296.312
296.312
296.312
296.312
296.312
296.312
296.312
296.312
296.312
296.312
296.312
296.312
296.312
296.312
296.312
296.312
296.312
296.312
296.312
296.312
296.312
296.312
296.312
296.312
296.312
296.312
296.312
296.312
296.312
296.312
296.312
296.312
296.312
296.312
296.312
296.312
296.312
296.312
296.312
296.312
296.312
296.312
296.312
296.312
296.312
296.312
296.312
296.312
296.312
296.312
296.312
296.312
296.312
296.312
296.312
296.312
296.312
296.312
296.312
296.312
296.312
296.312
296.312
296.312
296.312
296.312
296.312
296.312
296.312
296.312
296.312
296.312
296.312
296.312
296.312
296.312
296.312
296.312
296.312
296.312
296.312
296.312
296.312
296.312
296.312
296.312
296.312
296.312
296.312
296.312
296.312
296.312
296.312
296.312
296.312
296.312
296.312
296.312
296.312
296.832
296.832
296.832
296.832
296.832
296.832
296.832
296.832
296.832
296.832
296.832
296.832
296.832
296.832
296.832
296.832
296.832
296.832
296.832
296.832
296.832
296.832
296.832
296.832
296.832
296.832
296.832
296.832
296.832
296.832
296.832
296.832
296.832
296.832
296.832
296.832
296.832
296.832
296.832
296.832
296.832
296.832
296.832
296.832
296.832
296.832
296.832
296.832
296.832
296.832
296.832
296.832
296.832
296.832
296.832
296.832
296.832
296.832
296.832
296.832
296.832
296.832
296.832
296.832
296.832
296.832
296.832
296.832
296.832
296.832
296.832
296.832
296.832
296.832
296.832
296.832
296.832
296.832
296.832
296.832
296.832
296.832
296.832
296.832
296.832
296.832
296.832
296.832
296.832
296.832
296.832
296.832
296.832
296.832
296.832
296.832
296.832
296.832
296.832
296.832
296.832
296.832
296.832
296.832
296.832
296.832
296.832
296.832
296.832
296.832
296.832
296.832
296.832
296.832
296.832
296.832
296.832
296.832
296.832
296.832
296.832
296.832
296.832
296.832
296.832
296.832
296.832
296.832
296.832
296.832
296.832
296.832
296.832
296.832
296.832
296.832
296.832
296.832
296.832
296.832
296.832
296.832
296.832
296.832
296.832
296.832
296.832
296.832
296.832
296.832
296.832
296.832
296.832
296.832
296.832
296.832
296.832
296.832
296.832
296.832
296.832
296.832
296.832
296.832
296.832
296.832
296.832
296.832
296.832
296.832
296.832
296.832
296.832
296.832
296.832
296.832
296.832
296.832
296.832
296.832
296.832
296.832
296.832
296.832
296.832
296.832
296.832
296.832
296.832
296.832
296.832
296.832
296.832
296.832
296.832
296.832
296.832
296.832
296.832
296.832
297.352
297.352
297.352
297.352
297.352
297.352
297.352
297.352
297.352
297.352
297.352
297.352
297.352
297.352
297.352
297.352
297.352
297.352
297.352
297.352
297.352
297.352
297.352
297.352
297.352
297.352
297.352
297.352
297.352
297.352
297.352
297.352
297.352
297.352
297.352
297.352
297.352
297.352
297.352
297.352
297.352
297.352
297.352
297.352
297.352
297.352
297.352
297.352
297.352
297.352
297.352
297.352
297.352
297.352
297.352
297.352
297.352
297.352
297.352
297.352
297.352
297.352
297.352
297.352
297.352
297.352
297.352
297.352
297.352
297.352
297.352
297.352
297.352
297.352
297.352
297.352
297.352
297.352
297.352
297.352
297.352
297.352
297.352
297.352
297.352
297.352
297.352
297.352
297.352
297.352
297.352
297.352
297.352
297.352
297.352
297.352
297.352
297.352
297.352
297.352
297.352
297.352
297.352
297.352
297.352
297.352
297.352
297.352
297.352
297.352
297.352
297.352
297.352
297.352
297.352
297.352
297.352
297.352
297.352
297.352
297.352
297.352
297.352
297.352
297.352
297.352
297.352
297.352
297.352
297.352
297.352
297.352
297.352
297.352
297.352
297.352
297.352
297.352
297.352
297.352
297.352
297.352
297.352
297.352
297.352
297.352
297.352
297.352
297.352
297.352
297.352
297.352
297.352
297.352
297.352
297.352
297.352
297.352
297.352
297.352
297.352
297.352
297.352
297.352
297.352
297.352
297.352
297.352
297.352
297.352
297.352
297.352
297.352
297.352
297.352
297.352
297.352
297.352
297.352
297.352
297.352
297.352
297.352
297.352
297.352
297.352
297.352
297.352
297.352
297.352
297.352
297.352
297.352
297.352
297.352
297.352
297.352
297.352
297.352
297.352
297.87
297.87
297.87
297.87
297.87
297.87
297.87
297.87
297.87
297.87
297.87
297.87
297.87
297.87
297.87
297.87
297.87
297.87
297.87
297.87
297.87
297.87
297.87
297.87
297.87
297.87
297.87
297.87
297.87
297.87
297.87
297.87
297.87
297.87
297.87
297.87
297.87
297.87
297.87
297.87
297.87
297.87
297.87
297.87
297.87
297.87
297.87
297.87
297.87
297.87
297.87
297.87
297.87
297.87
297.87
297.87
297.87
297.87
297.87
297.87
297.87
297.87
297.87
297.87
297.87
297.87
297.87
297.87
297.87
297.87
297.87
297.87
297.87
297.87
297.87
297.87
297.87
297.87
297.87
297.87
297.87
297.87
297.87
297.87
297.87
297.87
297.87
297.87
297.87
297.87
297.87
297.87
297.87
297.87
297.87
297.87
297.87
297.87
297.87
297.87
297.87
297.87
297.87
297.87
297.87
297.87
297.87
297.87
297.87
297.87
297.87
297.87
297.87
297.87
297.87
297.87
297.87
297.87
297.87
297.87
297.87
297.87
297.87
297.87
297.87
297.87
297.87
297.87
297.87
297.87
297.87
297.87
297.87
297.87
297.87
297.87
297.87
297.87
297.87
297.87
297.87
297.87
297.87
297.87
297.87
297.87
297.87
297.87
297.87
297.87
297.87
297.87
297.87
297.87
297.87
297.87
297.87
297.87
297.87
297.87
297.87
297.87
297.87
297.87
297.87
297.87
297.87
297.87
297.87
297.87
297.87
297.87
297.87
297.87
297.87
297.87
297.87
297.87
297.87
297.87
297.87
297.87
297.87
297.87
297.87
297.87
297.87
297.87
297.87
297.87
297.87
297.87
297.87
297.87
297.87
297.87
297.87
297.87
297.87
297.87
298.388
298.388
298.388
298.388
298.388
298.388
298.388
298.388
298.388
298.388
298.388
298.388
298.388
298.388
298.388
298.388
298.388
298.388
298.388
298.388
298.388
298.388
298.388
298.388
298.388
298.388
298.388
298.388
298.388
298.388
298.388
298.388
298.388
298.388
298.388
298.388
298.388
298.388
298.388
298.388
298.388
298.388
298.388
298.388
298.388
298.388
298.388
298.388
298.388
298.388
298.388
298.388
298.388
298.388
298.388
298.388
298.388
298.388
298.388
298.388
298.388
298.388
298.388
298.388
298.388
298.388
298.388
298.388
298.388
298.388
298.388
298.388
298.388
298.388
298.388
298.388
298.388
298.388
298.388
298.388
298.388
298.388
298.388
298.388
298.388
298.388
298.388
298.388
298.388
298.388
298.388
298.388
298.388
298.388
298.388
298.388
298.388
298.388
298.388
298.388
298.388
298.388
298.388
298.388
298.388
298.388
298.388
298.388
298.388
298.388
298.388
298.388
298.388
298.388
298.388
298.388
298.388
298.388
298.388
298.388
298.388
298.388
298.388
298.388
298.388
298.388
298.388
298.388
298.388
298.388
298.388
298.388
298.388
298.388
298.388
298.388
298.388
298.388
298.388
298.388
298.388
298.388
298.388
298.388
298.388
298.388
298.388
298.388
298.388
298.388
298.388
298.388
298.388
298.388
298.388
298.388
298.388
298.388
298.388
298.388
298.388
298.388
298.388
298.388
298.388
298.388
298.388
298.388
298.388
298.388
298.388
298.388
298.388
298.388
298.388
298.388
298.388
298.388
298.388
298.388
298.388
298.388
298.388
298.388
298.388
298.388
298.388
298.388
298.388
298.388
298.388
298.388
298.388
298.388
298.388
298.388
298.388
298.388
298.388
298.388
298.904
298.904
298.904
298.904
298.904
298.904
298.904
298.904
298.904
298.904
298.904
298.904
298.904
298.904
298.904
298.904
298.904
298.904
298.904
298.904
298.904
298.904
298.904
298.904
298.904
298.904
298.904
298.904
298.904
298.904
298.904
298.904
298.904
298.904
298.904
298.904
298.904
298.904
298.904
298.904
298.904
298.904
298.904
298.904
298.904
298.904
298.904
298.904
298.904
298.904
298.904
298.904
298.904
298.904
298.904
298.904
298.904
298.904
298.904
298.904
298.904
298.904
298.904
298.904
298.904
298.904
298.904
298.904
298.904
298.904
298.904
298.904
298.904
298.904
298.904
298.904
298.904
298.904
298.904
298.904
298.904
298.904
298.904
298.904
298.904
298.904
298.904
298.904
298.904
298.904
298.904
298.904
298.904
298.904
298.904
298.904
298.904
298.904
298.904
298.904
298.904
298.904
298.904
298.904
298.904
298.904
298.904
298.904
298.904
298.904
298.904
298.904
298.904
298.904
298.904
298.904
298.904
298.904
298.904
298.904
298.904
298.904
298.904
298.904
298.904
298.904
298.904
298.904
298.904
298.904
298.904
298.904
298.904
298.904
298.904
298.904
298.904
298.904
298.904
298.904
298.904
298.904
298.904
298.904
298.904
298.904
298.904
298.904
298.904
298.904
298.904
298.904
298.904
298.904
298.904
298.904
298.904
298.904
298.904
298.904
298.904
298.904
298.904
298.904
298.904
298.904
298.904
298.904
298.904
298.904
298.904
298.904
298.904
298.904
298.904
298.904
298.904
298.904
298.904
298.904
298.904
298.904
298.904
298.904
298.904
298.904
298.904
298.904
298.904
298.904
298.904
298.904
298.904
298.904
298.904
298.904
298.904
298.904
298.904
298.904
299.418
299.418
299.418
299.418
299.418
299.418
299.418
299.418
299.418
299.418
299.418
299.418
299.418
299.418
299.418
299.418
299.418
299.418
299.418
299.418
299.418
299.418
299.418
299.418
299.418
299.418
299.418
299.418
299.418
299.418
299.418
299.418
299.418
299.418
299.418
299.418
299.418
299.418
299.418
299.418
299.418
299.418
299.418
299.418
299.418
299.418
299.418
299.418
299.418
299.418
299.418
299.418
299.418
299.418
299.418
299.418
299.418
299.418
299.418
299.418
299.418
299.418
299.418
299.418
299.418
299.418