FoamFile
{
    version         2.2;
    format          ascii;

    root            "";
    case            "";
    instance        "constant";
    local           "";

    class           dictionary;
    object          gmtDict;    
}

// How to plot
// Compulsory inputs
projection "X18c/12c";          // see man psxy for details on -J options
                                // "X18c/12c" means linear scaling, 18cm by 12cm
projection2D XY;                // how to go from 3d to 2d
                                // either XY, XZ, YZ or latLon

// A list of the fields to plot with plotting details
FieldsToPlot
(

// For each field to plot there should be a line like:
//  [fieldName plotType min max delta colorScale]
//  where plotType is one of filledContours, solidContours, dashedContours,
//  vectors, vectorContours, mesh, meshPoints, meshCentres or rawValues

    [p rawValues 0 0 0 "$GMTU/colours/red_white_blue.cpt"]

// for plotType vectors, the next numbers are the vector scale and then the
// stride to not plotting every vector

    [none mesh "grey"]
    [U vectors 0.01 1 "1pt,black"]
);

// other options:

annotate "minMax 0 -0.01";

// non-global region (see man psxy for details on -R option)
//region "0/1/0/1";

// boundary ticks, annotation and grid
//     (see man psbasemap for detail on -B option)
boundaryMarks "a0.1/a0.1";

// should the legend be plotted separately on on the plot
//separateLegend true;

// For 3d plots, give the patch to plot
//patch front;

// Do not show dots along the edges of the boundaries
plotBoundaryDots false;
