FoamFile {
    version     2.0;
    format      ascii;
    class       dictionary;
    location    "constant";
    object	tracerFieldDict;
}

type		radialDistance;
centre          (0 0 0);
