FoamFile {
    version     2.0;
    format      ascii;
    class       dictionary;
    location    "constant";
    object	tracerFieldDict;
}

type		schaerRadial;
maxMagnitude    0.5;
centre          (0 0 500);
halfWidth       (300 0 300);
