/*--------------------------------*- C++ -*----------------------------------*\
| =========                 |                                                 |
| \\      /  F ield         | OpenFOAM: The Open Source CFD Toolbox           |
|  \\    /   O peration     | Version:  dev                                   |
|   \\  /    A nd           | Web:      www.OpenFOAM.org                      |
|    \\/     M anipulation  |                                                 |
\*---------------------------------------------------------------------------*/
FoamFile
{
    version     2.0;
    format      ascii;
    class       surfaceScalarField;
    location    "constant";
    object      gd;
}
// * * * * * * * * * * * * * * * * * * * * * * * * * * * * * * * * * * * * * //

dimensions      [0 2 -2 0 0 0 0];

internalField   nonuniform List<scalar> 
39700
(
0
-981
0
-981
0
-981
0
-981
0
-981
0
-981
0
-981
0
-981
0
-981
0
-981
6.97042423781e-13
-981
-2.8578739375e-12
-981
3.62462060366e-12
-981
-1.46378908994e-12
-981
0
-981
0
-981
0
-981
0
-981
0
-981
0
-981
0
-981
0
-981
-6.97042423781e-13
-981
1.46378908994e-12
-981
-7.66746666159e-13
-981
6.97042423781e-14
-981
-6.97042423781e-14
-981
6.97042423781e-14
-981
0
-981
6.97042423781e-13
-981
-1.46378908994e-12
-981
1.04556363567e-12
-981
-6.97042423781e-13
-981
3.4852121189e-13
-981
0
-981
7.66746666159e-13
-981
-2.16083151372e-12
-981
2.16083151372e-12
-981
-7.66746666159e-13
-981
0
-981
0
-981
0
-981
-3.4852121189e-13
-981
6.97042423781e-13
-981
-4.18225454268e-13
-981
-6.27338181403e-13
-981
1.46378908994e-12
-981
0
-981
-1.46378908994e-12
-981
6.97042423781e-13
-981
0
-981
-6.97042423781e-14
-981
1.39408484756e-13
-981
-6.97042423781e-14
-981
-6.97042423781e-14
-981
1.39408484756e-13
-981
-6.97042423781e-14
-981
6.97042423781e-14
-981
-1.39408484756e-13
-981
-6.97042423781e-14
-981
1.04556363567e-12
-981
-1.67290181707e-12
-981
1.32438060518e-12
-981
-1.04556363567e-12
-981
1.18497212043e-12
-981
-1.81231030183e-12
-981
1.67290181707e-12
-981
-6.27338181403e-13
-981
3.4852121189e-13
-981
-4.18225454268e-13
-981
0
-981
4.18225454268e-13
-981
-6.97042423781e-14
-981
-3.4852121189e-13
-981
0
-981
3.4852121189e-13
-981
1.39408484756e-13
-981
-4.18225454268e-13
-981
-6.97042423781e-14
-981
4.87929696646e-13
-981
-1.39408484756e-13
-981
-4.87929696646e-13
-981
2.78816969512e-13
-981
0
-981
-3.4852121189e-13
-981
8.36450908537e-13
-981
-8.36450908537e-13
-981
8.36450908537e-13
-981
-1.11526787805e-12
-981
9.06155150915e-13
-981
-4.18225454268e-13
-981
3.4852121189e-13
-981
-4.18225454268e-13
-981
5.57633939025e-13
-981
-4.87929696646e-13
-981
-6.97042423781e-14
-981
5.57633939025e-13
-981
-4.87929696646e-13
-981
0
-981
0
-981
-6.97042423781e-14
-981
5.57633939025e-13
-981
-5.57633939025e-13
-981
1.39408484756e-13
-981
4.18225454268e-13
-981
-5.57633939025e-13
-981
0
-981
1.39408484756e-13
-981
-6.97042423781e-14
-981
7.66746666159e-13
-981
-9.06155150915e-13
-981
6.97042423781e-13
-981
-6.97042423781e-13
-981
6.27338181403e-13
-981
-6.27338181403e-13
-981
2.78816969512e-13
-981
-2.09112727134e-13
-981
6.97042423781e-14
-981
4.87929696646e-13
-981
-5.57633939025e-13
-981
6.97042423781e-14
-981
2.09112727134e-13
-981
1.39408484756e-13
-981
-3.4852121189e-13
-981
0
-981
1.39408484756e-13
-981
4.87929696646e-13
-981
-6.27338181403e-13
-981
0
-981
5.57633939025e-13
-981
-4.18225454268e-13
-981
-1.39408484756e-13
-981
6.97042423781e-14
-981
2.78816969512e-13
-981
0
-981
-3.4852121189e-13
-981
2.78816969512e-13
-981
-2.78816969512e-13
-981
4.87929696646e-13
-981
-5.57633939025e-13
-981
2.09112727134e-13
-981
0
-981
0
-981
0
-981
0
-981
6.97042423781e-14
-981
-6.97042423781e-14
-981
0
-981
0
-981
-3.4852121189e-13
-981
1.11526787805e-12
-981
-3.4852121189e-13
-981
-1.11526787805e-12
-981
6.97042423781e-13
-981
0
-981
4.18225454268e-13
-981
-7.66746666159e-13
-981
4.18225454268e-13
-981
-6.97042423781e-14
-981
0
-981
3.4852121189e-13
-981
-1.04556363567e-12
-981
3.4852121189e-13
-981
1.11526787805e-12
-981
-1.46378908994e-12
-981
1.11526787805e-12
-981
6.97042423781e-14
-981
-4.87929696646e-13
-981
0
-981
1.39408484756e-13
-981
-6.97042423781e-14
-981
-6.97042423781e-14
-981
0
-981
0
-981
7.66746666159e-13
-981
-1.46378908994e-12
-981
6.97042423781e-13
-981
-4.18225454268e-13
-981
7.66746666159e-13
-981
-3.4852121189e-13
-981
0
-981
0
-981
0
-981
0
-981
0
-981
0
-981
-6.97042423781e-14
-981
6.97042423781e-14
-981
0
-981
0
-981
0
-981
6.97042423781e-14
-981
-6.97042423781e-14
-981
0
-981
0
-981
0
-981
0
-981
0
-981
0
-981
-981
0
-981
0
-981
0
-981
0
-981
0
-981
0
-981
0
-981
0
-981
0
-981
0
-981
5.57633939025e-13
-981
-1.11526787805e-12
-981
5.57633939025e-13
-981
0
-981
0
-981
0
-981
1.39408484756e-12
-981
-2.78816969512e-12
-981
1.39408484756e-12
-981
0
-981
0
-981
0
-981
0
-981
0
-981
8.36450908537e-13
-981
-1.67290181707e-12
-981
1.67290181707e-12
-981
-2.50935272561e-12
-981
2.78816969512e-12
-981
-1.67290181707e-12
-981
1.39408484756e-12
-981
-8.36450908537e-13
-981
0
-981
5.57633939025e-13
-981
-1.11526787805e-12
-981
1.11526787805e-12
-981
-5.57633939025e-13
-981
0
-981
0
-981
0
-981
0
-981
0
-981
0
-981
0
-981
2.78816969512e-13
-981
5.57633939025e-13
-981
-1.39408484756e-12
-981
-2.78816969512e-13
-981
1.67290181707e-12
-981
-8.36450908537e-13
-981
0
-981
2.78816969512e-13
-981
0
-981
-2.78816969512e-13
-981
2.78816969512e-13
-981
0
-981
0
-981
2.78816969512e-13
-981
-1.11526787805e-12
-981
2.78816969512e-13
-981
5.57633939025e-13
-981
-2.78816969512e-13
-981
0
-981
2.78816969512e-13
-981
0
-981
0
-981
-2.78816969512e-13
-981
5.57633939025e-13
-981
-5.57633939025e-13
-981
-2.78816969512e-13
-981
8.36450908537e-13
-981
-8.36450908537e-13
-981
2.78816969512e-13
-981
2.78816969512e-13
-981
-2.78816969512e-13
-981
0
-981
0
-981
5.57633939025e-13
-981
-2.78816969512e-13
-981
-2.78816969512e-13
-981
0
-981
2.78816969512e-13
-981
-2.78816969512e-13
-981
0
-981
0
-981
2.78816969512e-13
-981
-2.78816969512e-13
-981
-2.78816969512e-13
-981
1.11526787805e-12
-981
-8.36450908537e-13
-981
-2.78816969512e-13
-981
5.57633939025e-13
-981
-5.57633939025e-13
-981
2.78816969512e-13
-981
-2.78816969512e-13
-981
2.78816969512e-13
-981
0
-981
2.78816969512e-13
-981
-2.78816969512e-13
-981
2.78816969512e-13
-981
-2.78816969512e-13
-981
0
-981
0
-981
0
-981
5.57633939025e-13
-981
-2.78816969512e-13
-981
-2.78816969512e-13
-981
-2.78816969512e-13
-981
0
-981
2.78816969512e-13
-981
2.78816969512e-13
-981
-5.57633939025e-13
-981
-2.78816969512e-13
-981
5.57633939025e-13
-981
5.57633939025e-13
-981
-2.78816969512e-13
-981
-2.78816969512e-13
-981
-2.78816969512e-13
-981
0
-981
5.57633939025e-13
-981
0
-981
-2.78816969512e-13
-981
2.78816969512e-13
-981
-2.78816969512e-13
-981
2.78816969512e-13
-981
-2.78816969512e-13
-981
0
-981
5.57633939025e-13
-981
-8.36450908537e-13
-981
5.57633939025e-13
-981
0
-981
-2.78816969512e-13
-981
0
-981
2.78816969512e-13
-981
0
-981
2.78816969512e-13
-981
-2.78816969512e-13
-981
-2.78816969512e-13
-981
-5.57633939025e-13
-981
8.36450908537e-13
-981
-2.78816969512e-13
-981
0
-981
0
-981
2.78816969512e-13
-981
-2.78816969512e-13
-981
0
-981
2.78816969512e-13
-981
-2.78816969512e-13
-981
0
-981
5.57633939025e-13
-981
-1.11526787805e-12
-981
5.57633939025e-13
-981
8.36450908537e-13
-981
-1.11526787805e-12
-981
8.36450908537e-13
-981
0
-981
-8.36450908537e-13
-981
2.78816969512e-13
-981
2.78816969512e-13
-981
0
-981
-2.78816969512e-13
-981
2.78816969512e-13
-981
5.57633939025e-13
-981
-1.95171878659e-12
-981
1.67290181707e-12
-981
-2.78816969512e-13
-981
-2.78816969512e-13
-981
-5.57633939025e-13
-981
0
-981
1.11526787805e-12
-981
-1.39408484756e-12
-981
1.95171878659e-12
-981
-1.39408484756e-12
-981
8.36450908537e-13
-981
-1.11526787805e-12
-981
1.11526787805e-12
-981
2.78816969512e-13
-981
-1.67290181707e-12
-981
8.36450908537e-13
-981
-2.78816969512e-13
-981
2.78816969512e-13
-981
2.78816969512e-13
-981
-2.78816969512e-13
-981
0
-981
-2.78816969512e-13
-981
2.78816969512e-13
-981
0
-981
0
-981
5.57633939025e-13
-981
-1.39408484756e-12
-981
8.36450908537e-13
-981
2.78816969512e-13
-981
-2.78816969512e-13
-981
-2.78816969512e-13
-981
2.78816969512e-13
-981
0
-981
0
-981
0
-981
0
-981
-981
0
-981
0
-981
0
-981
0
-981
0
-981
0
-981
0
-981
0
-981
-2.78816969512e-13
-981
2.78816969512e-13
-981
0
-981
0
-981
0
-981
0
-981
0
-981
-5.57633939025e-13
-981
2.78816969512e-13
-981
1.67290181707e-12
-981
-1.39408484756e-12
-981
0
-981
0
-981
0
-981
0
-981
0
-981
0
-981
0
-981
-5.57633939025e-13
-981
1.95171878659e-12
-981
-1.67290181707e-12
-981
1.11526787805e-12
-981
-1.39408484756e-12
-981
2.78816969512e-13
-981
1.11526787805e-12
-981
-1.11526787805e-12
-981
1.39408484756e-12
-981
-1.11526787805e-12
-981
0
-981
2.78816969512e-13
-981
-2.78816969512e-13
-981
0
-981
0
-981
0
-981
8.36450908537e-13
-981
-1.39408484756e-12
-981
8.36450908537e-13
-981
-2.78816969512e-13
-981
0
-981
8.36450908537e-13
-981
-1.39408484756e-12
-981
5.57633939025e-13
-981
0
-981
0
-981
0
-981
-2.78816969512e-13
-981
8.36450908537e-13
-981
-5.57633939025e-13
-981
2.78816969512e-13
-981
-2.78816969512e-13
-981
5.57633939025e-13
-981
-1.11526787805e-12
-981
2.78816969512e-13
-981
8.36450908537e-13
-981
-5.57633939025e-13
-981
0
-981
0
-981
2.78816969512e-13
-981
0
-981
-2.78816969512e-13
-981
-2.78816969512e-13
-981
8.36450908537e-13
-981
-5.57633939025e-13
-981
2.78816969512e-13
-981
-2.78816969512e-13
-981
0
-981
2.78816969512e-13
-981
-5.57633939025e-13
-981
2.78816969512e-13
-981
0
-981
0
-981
0
-981
5.57633939025e-13
-981
-8.36450908537e-13
-981
-2.78816969512e-13
-981
5.57633939025e-13
-981
1.11526787805e-12
-981
-1.39408484756e-12
-981
2.78816969512e-13
-981
5.57633939025e-13
-981
-1.39408484756e-12
-981
1.11526787805e-12
-981
0
-981
-5.57633939025e-13
-981
8.36450908537e-13
-981
-1.11526787805e-12
-981
1.39408484756e-12
-981
-8.36450908537e-13
-981
5.57633939025e-13
-981
0
-981
-5.57633939025e-13
-981
-2.78816969512e-13
-981
5.57633939025e-13
-981
-2.78816969512e-13
-981
2.78816969512e-13
-981
2.78816969512e-13
-981
-1.11526787805e-12
-981
2.78816969512e-13
-981
5.57633939025e-13
-981
2.78816969512e-13
-981
-5.57633939025e-13
-981
0
-981
-5.57633939025e-13
-981
5.57633939025e-13
-981
0
-981
5.57633939025e-13
-981
-5.57633939025e-13
-981
-2.78816969512e-13
-981
1.11526787805e-12
-981
-8.36450908537e-13
-981
0
-981
0
-981
0
-981
-5.57633939025e-13
-981
5.57633939025e-13
-981
-2.78816969512e-13
-981
2.78816969512e-13
-981
2.78816969512e-13
-981
-2.78816969512e-13
-981
0
-981
8.36450908537e-13
-981
-5.57633939025e-13
-981
-2.78816969512e-13
-981
0
-981
0
-981
2.78816969512e-13
-981
-5.57633939025e-13
-981
0
-981
1.11526787805e-12
-981
-8.36450908537e-13
-981
2.78816969512e-13
-981
-2.78816969512e-13
-981
0
-981
0
-981
0
-981
5.57633939025e-13
-981
-8.36450908537e-13
-981
5.57633939025e-13
-981
0
-981
-2.78816969512e-13
-981
0
-981
-2.78816969512e-13
-981
5.57633939025e-13
-981
0
-981
0
-981
0
-981
2.78816969512e-13
-981
-1.11526787805e-12
-981
1.39408484756e-12
-981
-5.57633939025e-13
-981
0
-981
0
-981
-5.57633939025e-13
-981
8.36450908537e-13
-981
-2.78816969512e-13
-981
2.78816969512e-13
-981
-5.57633939025e-13
-981
-8.36450908537e-13
-981
5.57633939025e-13
-981
2.78816969512e-13
-981
5.57633939025e-13
-981
-5.57633939025e-13
-981
8.36450908537e-13
-981
-1.39408484756e-12
-981
8.36450908537e-13
-981
2.78816969512e-13
-981
2.78816969512e-13
-981
-1.11526787805e-12
-981
0
-981
1.11526787805e-12
-981
-1.11526787805e-12
-981
2.78816969512e-13
-981
-2.78816969512e-13
-981
8.36450908537e-13
-981
-5.57633939025e-13
-981
0
-981
0
-981
0
-981
2.78816969512e-13
-981
-2.78816969512e-13
-981
-5.57633939025e-13
-981
1.39408484756e-12
-981
-8.36450908537e-13
-981
5.57633939025e-13
-981
-5.57633939025e-13
-981
2.78816969512e-13
-981
-2.78816969512e-13
-981
0
-981
0
-981
8.36450908537e-13
-981
-1.67290181707e-12
-981
-981
0
-981
0
-981
0
-981
0
-981
0
-981
-1.11526787805e-12
-981
2.2305357561e-12
-981
-1.11526787805e-12
-981
0
-981
0
-981
-1.11526787805e-12
-981
2.2305357561e-12
-981
-1.11526787805e-12
-981
0
-981
0
-981
1.11526787805e-12
-981
-1.67290181707e-12
-981
5.57633939025e-13
-981
0
-981
-5.57633939025e-13
-981
1.11526787805e-12
-981
-5.57633939025e-13
-981
0
-981
0
-981
0
-981
0
-981
5.57633939025e-13
-981
0
-981
-5.57633939025e-13
-981
0
-981
0
-981
1.11526787805e-12
-981
-1.11526787805e-12
-981
0
-981
5.57633939025e-13
-981
-1.11526787805e-12
-981
0
-981
5.57633939025e-13
-981
-5.57633939025e-13
-981
5.57633939025e-13
-981
0
-981
0
-981
0
-981
1.11526787805e-12
-981
-1.67290181707e-12
-981
1.11526787805e-12
-981
0
-981
-5.57633939025e-13
-981
1.11526787805e-12
-981
-1.67290181707e-12
-981
1.11526787805e-12
-981
0
-981
0
-981
0
-981
-5.57633939025e-13
-981
5.57633939025e-13
-981
-5.57633939025e-13
-981
-5.57633939025e-13
-981
5.57633939025e-13
-981
0
-981
5.57633939025e-13
-981
-5.57633939025e-13
-981
5.57633939025e-13
-981
0
-981
-5.57633939025e-13
-981
-5.57633939025e-13
-981
5.57633939025e-13
-981
5.57633939025e-13
-981
0
-981
-5.57633939025e-13
-981
0
-981
0
-981
0
-981
0
-981
0
-981
5.57633939025e-13
-981
-5.57633939025e-13
-981
0
-981
5.57633939025e-13
-981
0
-981
-5.57633939025e-13
-981
0
-981
1.67290181707e-12
-981
-1.11526787805e-12
-981
-5.57633939025e-13
-981
0
-981
5.57633939025e-13
-981
0
-981
0
-981
-5.57633939025e-13
-981
-5.57633939025e-13
-981
1.11526787805e-12
-981
0
-981
5.57633939025e-13
-981
-1.11526787805e-12
-981
0
-981
5.57633939025e-13
-981
-5.57633939025e-13
-981
-5.57633939025e-13
-981
0
-981
0
-981
5.57633939025e-13
-981
5.57633939025e-13
-981
-1.11526787805e-12
-981
1.67290181707e-12
-981
-1.11526787805e-12
-981
5.57633939025e-13
-981
-1.11526787805e-12
-981
1.67290181707e-12
-981
-1.67290181707e-12
-981
1.11526787805e-12
-981
0
-981
-5.57633939025e-13
-981
0
-981
-5.57633939025e-13
-981
1.11526787805e-12
-981
-1.11526787805e-12
-981
1.67290181707e-12
-981
-1.11526787805e-12
-981
0
-981
0
-981
0
-981
0
-981
-5.57633939025e-13
-981
5.57633939025e-13
-981
0
-981
0
-981
0
-981
0
-981
0
-981
-5.57633939025e-13
-981
1.11526787805e-12
-981
-5.57633939025e-13
-981
0
-981
0
-981
0
-981
1.11526787805e-12
-981
-1.11526787805e-12
-981
5.57633939025e-13
-981
0
-981
0
-981
-5.57633939025e-13
-981
5.57633939025e-13
-981
-5.57633939025e-13
-981
1.11526787805e-12
-981
-5.57633939025e-13
-981
5.57633939025e-13
-981
-5.57633939025e-13
-981
-5.57633939025e-13
-981
0
-981
0
-981
1.11526787805e-12
-981
0
-981
-1.11526787805e-12
-981
1.11526787805e-12
-981
-1.11526787805e-12
-981
0
-981
5.57633939025e-13
-981
5.57633939025e-13
-981
0
-981
-1.11526787805e-12
-981
5.57633939025e-13
-981
0
-981
5.57633939025e-13
-981
-1.67290181707e-12
-981
1.11526787805e-12
-981
-5.57633939025e-13
-981
1.11526787805e-12
-981
-1.67290181707e-12
-981
5.57633939025e-13
-981
1.11526787805e-12
-981
0
-981
-1.11526787805e-12
-981
5.57633939025e-13
-981
-5.57633939025e-13
-981
5.57633939025e-13
-981
-5.57633939025e-13
-981
1.11526787805e-12
-981
-1.67290181707e-12
-981
1.11526787805e-12
-981
-1.11526787805e-12
-981
5.57633939025e-13
-981
0
-981
0
-981
0
-981
-5.57633939025e-13
-981
5.57633939025e-13
-981
0
-981
5.57633939025e-13
-981
-5.57633939025e-13
-981
0
-981
0
-981
0
-981
5.57633939025e-13
-981
-5.57633939025e-13
-981
0
-981
0
-981
0
-981
1.11526787805e-12
-981
-981
0
-981
0
-981
0
-981
0
-981
0
-981
1.67290181707e-12
-981
-2.2305357561e-12
-981
5.57633939025e-13
-981
0
-981
0
-981
1.67290181707e-12
-981
-2.2305357561e-12
-981
5.57633939025e-13
-981
0
-981
0
-981
0
-981
0
-981
0
-981
0
-981
1.11526787805e-12
-981
-1.67290181707e-12
-981
5.57633939025e-13
-981
0
-981
0
-981
0
-981
0
-981
5.57633939025e-13
-981
5.57633939025e-13
-981
-5.57633939025e-13
-981
-1.11526787805e-12
-981
1.11526787805e-12
-981
-5.57633939025e-13
-981
0
-981
0
-981
0
-981
0
-981
-5.57633939025e-13
-981
1.67290181707e-12
-981
-1.11526787805e-12
-981
0
-981
5.57633939025e-13
-981
-5.57633939025e-13
-981
0
-981
0
-981
5.57633939025e-13
-981
-1.11526787805e-12
-981
1.11526787805e-12
-981
5.57633939025e-13
-981
-1.67290181707e-12
-981
1.67290181707e-12
-981
-1.67290181707e-12
-981
1.11526787805e-12
-981
-5.57633939025e-13
-981
5.57633939025e-13
-981
-5.57633939025e-13
-981
1.11526787805e-12
-981
-5.57633939025e-13
-981
-5.57633939025e-13
-981
5.57633939025e-13
-981
-5.57633939025e-13
-981
0
-981
1.11526787805e-12
-981
-1.11526787805e-12
-981
0
-981
-5.57633939025e-13
-981
1.67290181707e-12
-981
-2.2305357561e-12
-981
1.11526787805e-12
-981
5.57633939025e-13
-981
-5.57633939025e-13
-981
5.57633939025e-13
-981
-1.11526787805e-12
-981
1.11526787805e-12
-981
-5.57633939025e-13
-981
0
-981
0
-981
5.57633939025e-13
-981
-5.57633939025e-13
-981
0
-981
5.57633939025e-13
-981
-1.11526787805e-12
-981
1.11526787805e-12
-981
5.57633939025e-13
-981
-1.11526787805e-12
-981
-1.11526787805e-12
-981
1.11526787805e-12
-981
0
-981
0
-981
-5.57633939025e-13
-981
5.57633939025e-13
-981
1.67290181707e-12
-981
-2.2305357561e-12
-981
0
-981
5.57633939025e-13
-981
0
-981
0
-981
5.57633939025e-13
-981
5.57633939025e-13
-981
0
-981
-5.57633939025e-13
-981
0
-981
-5.57633939025e-13
-981
1.11526787805e-12
-981
-1.11526787805e-12
-981
5.57633939025e-13
-981
0
-981
-1.11526787805e-12
-981
0
-981
0
-981
5.57633939025e-13
-981
5.57633939025e-13
-981
-5.57633939025e-13
-981
5.57633939025e-13
-981
1.11526787805e-12
-981
-2.78816969512e-12
-981
1.67290181707e-12
-981
-1.11526787805e-12
-981
1.67290181707e-12
-981
-1.11526787805e-12
-981
-5.57633939025e-13
-981
5.57633939025e-13
-981
1.11526787805e-12
-981
-1.67290181707e-12
-981
5.57633939025e-13
-981
0
-981
1.11526787805e-12
-981
-1.11526787805e-12
-981
5.57633939025e-13
-981
-5.57633939025e-13
-981
5.57633939025e-13
-981
0
-981
0
-981
0
-981
5.57633939025e-13
-981
-1.67290181707e-12
-981
5.57633939025e-13
-981
5.57633939025e-13
-981
-1.11526787805e-12
-981
0
-981
0
-981
5.57633939025e-13
-981
0
-981
-1.11526787805e-12
-981
1.67290181707e-12
-981
0
-981
-5.57633939025e-13
-981
5.57633939025e-13
-981
-1.11526787805e-12
-981
1.67290181707e-12
-981
-1.67290181707e-12
-981
1.11526787805e-12
-981
0
-981
-5.57633939025e-13
-981
5.57633939025e-13
-981
0
-981
-5.57633939025e-13
-981
0
-981
-5.57633939025e-13
-981
1.11526787805e-12
-981
0
-981
-5.57633939025e-13
-981
1.11526787805e-12
-981
-5.57633939025e-13
-981
0
-981
-1.11526787805e-12
-981
5.57633939025e-13
-981
5.57633939025e-13
-981
-1.67290181707e-12
-981
3.34580363415e-12
-981
-2.2305357561e-12
-981
0
-981
5.57633939025e-13
-981
-1.11526787805e-12
-981
1.11526787805e-12
-981
0
-981
-1.11526787805e-12
-981
1.11526787805e-12
-981
-1.67290181707e-12
-981
2.2305357561e-12
-981
-1.11526787805e-12
-981
-5.57633939025e-13
-981
1.67290181707e-12
-981
-1.11526787805e-12
-981
0
-981
-5.57633939025e-13
-981
5.57633939025e-13
-981
5.57633939025e-13
-981
-5.57633939025e-13
-981
0
-981
0
-981
0
-981
1.11526787805e-12
-981
-1.11526787805e-12
-981
0
-981
0
-981
0
-981
1.67290181707e-12
-981
-2.2305357561e-12
-981
5.57633939025e-13
-981
-981
-1.11526787805e-12
-981
2.2305357561e-12
-981
-1.11526787805e-12
-981
0
-981
0
-981
0
-981
1.11526787805e-12
-981
-1.11526787805e-12
-981
0
-981
0
-981
1.11526787805e-12
-981
-1.11526787805e-12
-981
0
-981
0
-981
0
-981
0
-981
0
-981
0
-981
0
-981
0
-981
0
-981
0
-981
2.2305357561e-12
-981
-3.34580363415e-12
-981
1.11526787805e-12
-981
1.11526787805e-12
-981
0
-981
-2.2305357561e-12
-981
2.2305357561e-12
-981
-1.11526787805e-12
-981
0
-981
0
-981
0
-981
0
-981
0
-981
0
-981
1.11526787805e-12
-981
-1.11526787805e-12
-981
0
-981
0
-981
0
-981
1.11526787805e-12
-981
-1.11526787805e-12
-981
0
-981
0
-981
1.11526787805e-12
-981
0
-981
-1.11526787805e-12
-981
1.11526787805e-12
-981
-1.11526787805e-12
-981
0
-981
1.11526787805e-12
-981
-1.11526787805e-12
-981
1.11526787805e-12
-981
-1.11526787805e-12
-981
0
-981
0
-981
0
-981
0
-981
0
-981
0
-981
-1.11526787805e-12
-981
2.2305357561e-12
-981
-1.11526787805e-12
-981
1.11526787805e-12
-981
-1.11526787805e-12
-981
0
-981
1.11526787805e-12
-981
-1.11526787805e-12
-981
0
-981
0
-981
0
-981
0
-981
0
-981
0
-981
1.11526787805e-12
-981
-1.11526787805e-12
-981
0
-981
0
-981
0
-981
1.11526787805e-12
-981
-1.11526787805e-12
-981
-1.11526787805e-12
-981
1.11526787805e-12
-981
1.11526787805e-12
-981
-1.11526787805e-12
-981
0
-981
0
-981
1.11526787805e-12
-981
-1.11526787805e-12
-981
0
-981
0
-981
1.11526787805e-12
-981
-2.2305357561e-12
-981
1.11526787805e-12
-981
0
-981
0
-981
1.11526787805e-12
-981
0
-981
-1.11526787805e-12
-981
1.11526787805e-12
-981
0
-981
-1.11526787805e-12
-981
0
-981
0
-981
1.11526787805e-12
-981
-1.11526787805e-12
-981
0
-981
0
-981
0
-981
0
-981
1.11526787805e-12
-981
-1.11526787805e-12
-981
0
-981
0
-981
-1.11526787805e-12
-981
1.11526787805e-12
-981
0
-981
0
-981
0
-981
0
-981
0
-981
1.11526787805e-12
-981
-1.11526787805e-12
-981
0
-981
0
-981
1.11526787805e-12
-981
-1.11526787805e-12
-981
0
-981
-1.11526787805e-12
-981
1.11526787805e-12
-981
0
-981
0
-981
0
-981
1.11526787805e-12
-981
-1.11526787805e-12
-981
0
-981
0
-981
0
-981
1.11526787805e-12
-981
-1.11526787805e-12
-981
0
-981
0
-981
0
-981
1.11526787805e-12
-981
-1.11526787805e-12
-981
1.11526787805e-12
-981
-1.11526787805e-12
-981
0
-981
1.11526787805e-12
-981
-1.11526787805e-12
-981
1.11526787805e-12
-981
-1.11526787805e-12
-981
0
-981
1.11526787805e-12
-981
0
-981
-1.11526787805e-12
-981
0
-981
0
-981
0
-981
0
-981
0
-981
0
-981
1.11526787805e-12
-981
-1.11526787805e-12
-981
0
-981
0
-981
0
-981
0
-981
1.11526787805e-12
-981
-1.11526787805e-12
-981
1.11526787805e-12
-981
0
-981
-1.11526787805e-12
-981
0
-981
1.11526787805e-12
-981
-1.11526787805e-12
-981
0
-981
0
-981
0
-981
0
-981
0
-981
0
-981
0
-981
0
-981
0
-981
1.11526787805e-12
-981
-1.11526787805e-12
-981
0
-981
0
-981
0
-981
0
-981
0
-981
0
-981
0
-981
0
-981
0
-981
0
-981
0
-981
-981
1.11526787805e-12
-981
0
-981
0
-981
0
-981
1.11526787805e-12
-981
-2.2305357561e-12
-981
2.2305357561e-12
-981
-1.11526787805e-12
-981
0
-981
1.11526787805e-12
-981
-2.2305357561e-12
-981
2.2305357561e-12
-981
-1.11526787805e-12
-981
0
-981
0
-981
0
-981
1.11526787805e-12
-981
-1.11526787805e-12
-981
0
-981
0
-981
0
-981
1.11526787805e-12
-981
0
-981
-1.11526787805e-12
-981
1.11526787805e-12
-981
-2.2305357561e-12
-981
1.11526787805e-12
-981
-1.11526787805e-12
-981
0
-981
2.2305357561e-12
-981
-1.11526787805e-12
-981
1.11526787805e-12
-981
-1.11526787805e-12
-981
0
-981
0
-981
0
-981
-1.11526787805e-12
-981
1.11526787805e-12
-981
0
-981
1.11526787805e-12
-981
-1.11526787805e-12
-981
-1.11526787805e-12
-981
1.11526787805e-12
-981
0
-981
1.11526787805e-12
-981
-1.11526787805e-12
-981
1.11526787805e-12
-981
-1.11526787805e-12
-981
-1.11526787805e-12
-981
1.11526787805e-12
-981
0
-981
1.11526787805e-12
-981
-1.11526787805e-12
-981
0
-981
2.2305357561e-12
-981
-2.2305357561e-12
-981
1.11526787805e-12
-981
-3.34580363415e-12
-981
3.34580363415e-12
-981
-1.11526787805e-12
-981
1.11526787805e-12
-981
0
-981
0
-981
-1.11526787805e-12
-981
0
-981
0
-981
1.11526787805e-12
-981
-2.2305357561e-12
-981
2.2305357561e-12
-981
-2.2305357561e-12
-981
1.11526787805e-12
-981
1.11526787805e-12
-981
0
-981
-2.2305357561e-12
-981
-1.11526787805e-12
-981
1.11526787805e-12
-981
2.2305357561e-12
-981
-2.2305357561e-12
-981
0
-981
1.11526787805e-12
-981
-1.11526787805e-12
-981
2.2305357561e-12
-981
-1.11526787805e-12
-981
0
-981
0
-981
0
-981
0
-981
1.11526787805e-12
-981
-2.2305357561e-12
-981
2.2305357561e-12
-981
-1.11526787805e-12
-981
0
-981
0
-981
1.11526787805e-12
-981
-2.2305357561e-12
-981
0
-981
2.2305357561e-12
-981
-2.2305357561e-12
-981
1.11526787805e-12
-981
-1.11526787805e-12
-981
1.11526787805e-12
-981
1.11526787805e-12
-981
-2.2305357561e-12
-981
1.11526787805e-12
-981
0
-981
-2.2305357561e-12
-981
2.2305357561e-12
-981
0
-981
0
-981
1.11526787805e-12
-981
0
-981
-2.2305357561e-12
-981
1.11526787805e-12
-981
1.11526787805e-12
-981
-3.34580363415e-12
-981
2.2305357561e-12
-981
0
-981
0
-981
-1.11526787805e-12
-981
1.11526787805e-12
-981
0
-981
0
-981
-1.11526787805e-12
-981
1.11526787805e-12
-981
0
-981
0
-981
0
-981
0
-981
0
-981
1.11526787805e-12
-981
-1.11526787805e-12
-981
0
-981
-1.11526787805e-12
-981
1.11526787805e-12
-981
-1.11526787805e-12
-981
0
-981
1.11526787805e-12
-981
0
-981
0
-981
0
-981
0
-981
0
-981
1.11526787805e-12
-981
0
-981
-1.11526787805e-12
-981
0
-981
2.2305357561e-12
-981
-2.2305357561e-12
-981
1.11526787805e-12
-981
-1.11526787805e-12
-981
0
-981
1.11526787805e-12
-981
-2.2305357561e-12
-981
1.11526787805e-12
-981
1.11526787805e-12
-981
-1.11526787805e-12
-981
1.11526787805e-12
-981
-1.11526787805e-12
-981
0
-981
0
-981
1.11526787805e-12
-981
-1.11526787805e-12
-981
0
-981
1.11526787805e-12
-981
-1.11526787805e-12
-981
0
-981
0
-981
0
-981
-1.11526787805e-12
-981
1.11526787805e-12
-981
0
-981
1.11526787805e-12
-981
-2.2305357561e-12
-981
2.2305357561e-12
-981
0
-981
-1.11526787805e-12
-981
0
-981
1.11526787805e-12
-981
-1.11526787805e-12
-981
0
-981
0
-981
0
-981
0
-981
-1.11526787805e-12
-981
1.11526787805e-12
-981
0
-981
0
-981
0
-981
-1.11526787805e-12
-981
1.11526787805e-12
-981
0
-981
0
-981
-1.11526787805e-12
-981
0
-981
0
-981
1.11526787805e-12
-981
1.11526787805e-12
-981
-2.2305357561e-12
-981
0
-981
-981
2.2305357561e-12
-981
-4.4610715122e-12
-981
2.2305357561e-12
-981
0
-981
0
-981
1.11526787805e-12
-981
-1.11526787805e-12
-981
1.11526787805e-12
-981
0
-981
-2.2305357561e-12
-981
2.2305357561e-12
-981
-3.34580363415e-12
-981
2.2305357561e-12
-981
0
-981
0
-981
0
-981
-1.11526787805e-12
-981
1.11526787805e-12
-981
0
-981
0
-981
0
-981
0
-981
-1.11526787805e-12
-981
0
-981
1.11526787805e-12
-981
0
-981
-1.11526787805e-12
-981
3.34580363415e-12
-981
-2.2305357561e-12
-981
0
-981
-1.11526787805e-12
-981
1.11526787805e-12
-981
-1.11526787805e-12
-981
1.11526787805e-12
-981
0
-981
-1.11526787805e-12
-981
2.2305357561e-12
-981
-2.2305357561e-12
-981
1.11526787805e-12
-981
0
-981
-1.11526787805e-12
-981
0
-981
0
-981
0
-981
0
-981
-1.11526787805e-12
-981
1.11526787805e-12
-981
1.11526787805e-12
-981
0
-981
0
-981
-1.11526787805e-12
-981
1.11526787805e-12
-981
-1.11526787805e-12
-981
1.11526787805e-12
-981
1.11526787805e-12
-981
-1.11526787805e-12
-981
0
-981
1.11526787805e-12
-981
-1.11526787805e-12
-981
0
-981
0
-981
0
-981
0
-981
-1.11526787805e-12
-981
1.11526787805e-12
-981
0
-981
-1.11526787805e-12
-981
2.2305357561e-12
-981
-1.11526787805e-12
-981
0
-981
0
-981
0
-981
-1.11526787805e-12
-981
0
-981
1.11526787805e-12
-981
0
-981
-1.11526787805e-12
-981
1.11526787805e-12
-981
1.11526787805e-12
-981
-1.11526787805e-12
-981
1.11526787805e-12
-981
0
-981
0
-981
-2.2305357561e-12
-981
1.11526787805e-12
-981
2.2305357561e-12
-981
-2.2305357561e-12
-981
1.11526787805e-12
-981
0
-981
-2.2305357561e-12
-981
1.11526787805e-12
-981
0
-981
1.11526787805e-12
-981
-2.2305357561e-12
-981
1.11526787805e-12
-981
0
-981
-1.11526787805e-12
-981
1.11526787805e-12
-981
0
-981
0
-981
0
-981
0
-981
-1.11526787805e-12
-981
2.2305357561e-12
-981
-2.2305357561e-12
-981
1.11526787805e-12
-981
-1.11526787805e-12
-981
1.11526787805e-12
-981
-1.11526787805e-12
-981
0
-981
2.2305357561e-12
-981
-1.11526787805e-12
-981
0
-981
1.11526787805e-12
-981
0
-981
-1.11526787805e-12
-981
1.11526787805e-12
-981
-1.11526787805e-12
-981
0
-981
0
-981
0
-981
1.11526787805e-12
-981
-2.2305357561e-12
-981
1.11526787805e-12
-981
0
-981
0
-981
0
-981
0
-981
1.11526787805e-12
-981
-2.2305357561e-12
-981
1.11526787805e-12
-981
0
-981
0
-981
0
-981
0
-981
0
-981
1.11526787805e-12
-981
0
-981
-1.11526787805e-12
-981
0
-981
-1.11526787805e-12
-981
1.11526787805e-12
-981
0
-981
0
-981
0
-981
-1.11526787805e-12
-981
0
-981
0
-981
1.11526787805e-12
-981
0
-981
0
-981
0
-981
0
-981
-1.11526787805e-12
-981
1.11526787805e-12
-981
0
-981
0
-981
0
-981
-1.11526787805e-12
-981
0
-981
0
-981
1.11526787805e-12
-981
0
-981
0
-981
0
-981
-1.11526787805e-12
-981
0
-981
0
-981
1.11526787805e-12
-981
-1.11526787805e-12
-981
1.11526787805e-12
-981
-1.11526787805e-12
-981
0
-981
0
-981
1.11526787805e-12
-981
-1.11526787805e-12
-981
0
-981
1.11526787805e-12
-981
0
-981
-1.11526787805e-12
-981
1.11526787805e-12
-981
0
-981
0
-981
-1.11526787805e-12
-981
2.2305357561e-12
-981
-1.11526787805e-12
-981
0
-981
0
-981
1.11526787805e-12
-981
-1.11526787805e-12
-981
0
-981
-1.11526787805e-12
-981
2.2305357561e-12
-981
-3.34580363415e-12
-981
2.2305357561e-12
-981
0
-981
-1.11526787805e-12
-981
1.11526787805e-12
-981
0
-981
-981
0
-981
0
-981
0
-981
-1.11526787805e-12
-981
2.2305357561e-12
-981
-1.11526787805e-12
-981
0
-981
2.2305357561e-12
-981
-2.2305357561e-12
-981
-1.11526787805e-12
-981
1.11526787805e-12
-981
0
-981
-1.11526787805e-12
-981
2.2305357561e-12
-981
-1.11526787805e-12
-981
0
-981
0
-981
-1.11526787805e-12
-981
2.2305357561e-12
-981
-1.11526787805e-12
-981
1.11526787805e-12
-981
-1.11526787805e-12
-981
1.11526787805e-12
-981
-2.2305357561e-12
-981
2.2305357561e-12
-981
-2.2305357561e-12
-981
1.11526787805e-12
-981
1.11526787805e-12
-981
-1.11526787805e-12
-981
0
-981
-1.11526787805e-12
-981
1.11526787805e-12
-981
1.11526787805e-12
-981
-1.11526787805e-12
-981
-1.11526787805e-12
-981
1.11526787805e-12
-981
-1.11526787805e-12
-981
2.2305357561e-12
-981
1.11526787805e-12
-981
-1.11526787805e-12
-981
-1.11526787805e-12
-981
0
-981
0
-981
0
-981
0
-981
1.11526787805e-12
-981
-1.11526787805e-12
-981
2.2305357561e-12
-981
-2.2305357561e-12
-981
0
-981
0
-981
-1.11526787805e-12
-981
2.2305357561e-12
-981
-1.11526787805e-12
-981
0
-981
1.11526787805e-12
-981
0
-981
0
-981
-1.11526787805e-12
-981
-1.11526787805e-12
-981
1.11526787805e-12
-981
0
-981
1.11526787805e-12
-981
0
-981
0
-981
-1.11526787805e-12
-981
0
-981
1.11526787805e-12
-981
-1.11526787805e-12
-981
-1.11526787805e-12
-981
1.11526787805e-12
-981
0
-981
0
-981
0
-981
0
-981
0
-981
1.11526787805e-12
-981
0
-981
-1.11526787805e-12
-981
1.11526787805e-12
-981
-1.11526787805e-12
-981
1.11526787805e-12
-981
0
-981
-1.11526787805e-12
-981
0
-981
0
-981
0
-981
1.11526787805e-12
-981
0
-981
0
-981
-1.11526787805e-12
-981
1.11526787805e-12
-981
1.11526787805e-12
-981
-3.34580363415e-12
-981
2.2305357561e-12
-981