/*--------------------------------*- C++ -*----------------------------------*\
| =========                 |                                                 |
| \\      /  F ield         | OpenFOAM: The Open Source CFD Toolbox           |
|  \\    /   O peration     | Version:  dev                                   |
|   \\  /    A nd           | Web:      www.OpenFOAM.org                      |
|    \\/     M anipulation  |                                                 |
\*---------------------------------------------------------------------------*/
FoamFile
{
    version     2.0;
    format      ascii;
    class       dictionary;
    location    "system";
    object      fvSchemes;
}
// * * * * * * * * * * * * * * * * * * * * * * * * * * * * * * * * * * * * * //

ddtSchemes
{
    default         Euler;
}
offCentre 0.6;

gradSchemes
{
    default         none;
    linearUpwind    Gauss linear;
}

divSchemes
{
    default         none;
    div(U,u)        Gauss linearUpwind linearUpwind;
}

laplacianSchemes
{
    default         Gauss linear uncorrected;
}

interpolationSchemes
{
    default         none;
    interpolate(convection(U,u)) midPoint;
    interpolate(u)  midPoint;
    H               midPoint;
}

snGradSchemes
{
    default         none;
    snGrad(p)   uncorrected;
}

fluxRequired
{
    default         no;
    p;
}


// ************************************************************************* //
