FoamFile
{
    version         2.3;
    format          ascii;

    root            "";
    case            "";
    instance        "constant";
    local           "";

    class           dictionary;
    object          gmtDict;
}

// How to plot
// Compulsory inputs
projection "X18c/15c";
projection2D XZ;

FieldsToPlot
(
    [thetae filledContours 320 324 0.1 "jet"]
);

//separateLegend true;
region "-10e3/10e3/0/10e3";
annotate "minMax 0.01 -0.005";
boundaryMarks "2000/2000";

