FoamFile
{
    version         2.3;
    format          ascii;

    root            "";
    case            "";
    instance        "constant";
    local           "";

    class           dictionary;
    object          gmtDict;
}

// How to plot
// Compulsory inputs
projection "X15c/15c";
projection2D XZ;

FieldsToPlot
4
(
    [thetae filledContours 314.75 325.25 0.5 "$GMTU/colours/red_white_blue.cpt"]
//    [thetae filledContours 0 0 0 "$GMTU/colours/red_white_blue.cpt"]
    [Uf vectors 25 13 "black"]
    [Ufz contours 0 30 2 "1p,black"]
    [Ufz contours -30 -2 2 "1p,black,15_15:0"]
);

//separateLegend true;
region "-5000/5000/0/10000";
annotate "minMax -1e3 -100";
boundaryMarks "2500/2500";

