FoamFile {
    version     2.0;
    format      ascii;
    class       dictionary;
    location    "constant";
    object	    liquidWaterDict;
}

type		schaerDamped;
maxMagnitude    0.05;
rhoAir          1.;
profileType     "rl";
centre          (0 0 1500);
ground          (0 0 0);
halfWidth       (300 0 300);
