FoamFile
{
    version         1.4;
    format          ascii;

    root            "";
    case            "";
    instance        "constant";
    local           "";

    class           dictionary;
    object          gmtDict;
}

// How to plot
// Compulsory inputs
projection "X18c/18c";
projection2D XY;

FieldsToPlot
(
    [del4h filledContours -5e-21 5e-21 5e-22 "$GMTU/colours/red_white_blue.cpt"]
    [none mesh "grey"]
);

// Options
plotBoundaryDots false;
//separateLegend true;
//region "-25e3/25e3/0/25e3";
annotate "minMax 0 -38000";
//boundaryMarks "5e3/5e3";

