FoamFile
{
    version         2.2;
    format          ascii;

    root            "";
    case            "";
    instance        "constant";
    local           "";

    class           dictionary;
    object          gmtDict;
}

// How to plot
// Compulsory inputs
projection "X18c/18c";
projection2D XZ;

FieldsToPlot
(
    [c_m filledContours 0 1 0.1 "$GMTU/colours/white_blue_red.cpt"]
    //[c_mR filledContours 0 1 0.1 "$GMTU/colours/white_blue_red.cpt"]
    [gradc_m vectors 1e-4 1 "black"]
    [gradc_mR vectors 1e-4 1 "black"]
);

annotate "minMax -0.25 -0.501";
//region "0/0.5/0/0.5";

