FoamFile
{
    version         2.3;
    format          ascii;

    root            "";
    case            "";
    instance        "constant";
    local           "";

    class           dictionary;
    object          gmtDict;
}

// How to plot
// Compulsory inputs
projection "X18c/18c";
projection2D XZ;

FieldsToPlot
(
    [stableThetaDiff filledContours -0.31 0.31 0.02 "$GMTU/colours/red_white_blue.cpt"]
    [stable.Uf vectors 1000 17 "black"]
);

//separateLegend true;
//region "-5000/5000/2500/12500";
//annotate "minMax -5e3 1.7e3";
//boundaryMarks "2500/2500";
annotate "minMax -1e3 -100";
plotBoundaryDots false;
