FoamFile
{
    version         2.3;
    format          ascii;

    root            "";
    case            "";
    instance        "constant";
    local           "";

    class           dictionary;
    object          gmtDict;
}

// How to plot
// Compulsory inputs
projection "X18c/18c";
projection2D XZ;

FieldsToPlot
1
(
    [thetaError rawValues 0 0 0 "$GMTU/colours/red_white_blue.cpt"]
);

//separateLegend true;
//region "-6000/6000/3000/15000";
annotate "minMax 0.01 -0.005";

