/*---------------------------------------------------------------------------*\
| =========                 |                                                 |
| \\      /  F ield         | OpenFOAM: The Open Source CFD Toolbox           |
|  \\    /   O peration     | Version:  1.4                                   |
|   \\  /    A nd           | Web:      http://www.openfoam.org               |
|    \\/     M anipulation  |                                                 |
\*---------------------------------------------------------------------------*/

FoamFile
{
    version         2.2;
    format          ascii;

    root            "";
    case            "";
    instance        "";
    local           "";

    class           dictionary;
    object          blockMeshDict;
}

// * * * * * * * * * * * * * * * * * * * * * * * * * * * * * * * * * * * * * //

convertToMeters 1000;

vertices (
    (-50 0 0)  // 0
    ( 50 0 0)  // 1
    ( 50 1 0)  // 2
    (-50 1 0)  // 3
    (-50 0 30) // 4
    ( 50 0 30) // 5
    ( 50 1 30) // 6
    (-50 1 30) // 7
);

blocks
(
    hex (0 1 2 3 4 5 6 7) (200 1 100) simpleGrading (1 1 1)
);

boundary (
    inlet {
        type inlet;
        faces (
            (0 3 7 4)
        );
    }

    outlet {
        type outlet;
        faces (
            (1 2 6 5)
        );
    }

    ground
    {
        type wall;
        faces (
            (0 1 2 3)
        );    
    }

    top {
        type wall;
        faces (
            (4 5 6 7)
        );
    }

    frontAndBack {
        type empty;
        faces (
            (0 1 5 4)
            (3 2 6 7)
        );
    }
);
