FoamFile {
        version         1.4;
        format          ascii;

        root            "";
        case            "";
        instance        "constant";
        local           "";

        class           dictionary;
        object          gmtDict;
}

projection "X10i/4i";
projection2D XZ;
separateLegend false;
plotBoundaryDots false;
//plotZeroValuePolys false;

FieldsToPlot (
        [none mesh "gray"]
        [none numbered 0]
);

region "-10.5e3/10.5e3/48e3/52.5e3";
boundaryMarks "5e3/10e3WSen";
