FoamFile {
    version     2.0;
    format      ascii;
    class       dictionary;
    object      blockMeshDict;
}

convertToMeters 1000; // effective units are km

vertices (
    (-3000 0 0)  // 0
    (3000  0 0)  // 1
    (3000  1 0)  // 2
    (-3000 1 0)  // 3
    (-3000 0 10) // 4
    (3000  0 10) // 5
    (3000  1 10) // 6
    (-3000 1 10) // 7
);

blocks (
	hex (0 1 2 3 4 5 6 7)
	    (300 1 10)
	    simpleGrading (1 1 1)
);

boundary (
	inlet {
		type cyclic;
        neighbourPatch  outlet;
		faces (
			(0 3 7 4)
		);
	}

	outlet {
		type cyclic;
        neighbourPatch  inlet;
		faces (
			(1 2 6 5)
		);
	}

	ground {
		type wall;
		faces (
			(0 1 2 3)
		);	
	}

	top {
		type wall;
		faces (
			(4 5 6 7)
		);
	}

	front{
		type cyclic;
		neighbourPatch back;
		faces (
			(0 1 5 4)
		);
	}

	back{
		type cyclic;
		neighbourPatch front;
		faces (
			(3 2 6 7)
		);
	}
);
