FoamFile {
        version         1.4;
        format          ascii;

        root            "";
        case            "";
        instance        "constant";
        local           "";

        class           dictionary;
        object          gmtDict;
}

projection "X1.6i/1.6i";
projection2D XZ;
separateLegend true;
plotBoundaryDots false;
//plotZeroValuePolys false;

FieldsToPlot (
        [theta_diff rawValues -0.5 0.5 0.1 "$GMTU/colours/red_white_blue.cpt"]
        [thetaf_diff rawValues -0.5 0.5 0.1 "$GMTU/colours/red_white_blue.cpt"]
        [none mesh "gray"]
);

region "-140e3/140e3/0/30e3";
boundaryMarks "100e3/10e3wSen";
