/*--------------------------------*- C++ -*----------------------------------*\
| =========                 |                                                 |
| \\      /  F ield         | OpenFOAM: The Open Source CFD Toolbox           |
|  \\    /   O peration     | Version:  dev                                   |
|   \\  /    A nd           | Web:      www.OpenFOAM.org                      |
|    \\/     M anipulation  |                                                 |
\*---------------------------------------------------------------------------*/
FoamFile
{
    version     2.0;
    format      ascii;
    class       volScalarField;
    location    "constant";
    object      thetaStat;
}
// * * * * * * * * * * * * * * * * * * * * * * * * * * * * * * * * * * * * * //

dimensions      [0 0 0 1 0 0 0];

internalField   uniform 315;

boundaryField
{
    top
    {
        type            fixedGradient;
        gradient        uniform 0.0035555937;
    }
    inlet
    {
        type            symmetryPlane;
    }
    outlet
    {
        type            symmetryPlane;
    }
    ground
    {
        type            fixedGradient;
        gradient        uniform -0.003211;
    }
    frontAndBack
    {
        type            empty;
    }
}


// ************************************************************************* //
