FoamFile {
    version     2.0;
    format      ascii;
    class       dictionary;
    location    "system";
    object      fvSchemes;
}

interpolationSchemes {
    default         none;
}

divSchemes {
    default         none;
}

gradSchemes {
    default        none;
}

laplacianSchemes {
    default         none;
}

ddtSchemes {
    default         none;
}

fluxRequired {
    default         no;
}
