FoamFile {
    version     2.0;
    format      ascii;
    class       dictionary;
    location    "constant";
    object	setScalarOverOrographyDict;
}

rho0		1;
x0		-50000;
z0		9000;
Ax		25000;
Az		3000;

