/*--------------------------------*- C++ -*----------------------------------*\
| =========                 |                                                 |
| \\      /  F ield         | OpenFOAM: The Open Source CFD Toolbox           |
|  \\    /   O peration     | Version:  1.5                                   |
|   \\  /    A nd           | Web:      http://www.OpenFOAM.org               |
|    \\/     M anipulation  |                                                 |
\*---------------------------------------------------------------------------*/
FoamFile
{
    version     2.0;
    format      ascii;
    class       dictionary;
    object      fvSolution;
}
// * * * * * * * * * * * * * * * * * * * * * * * * * * * * * * * * * * * * * //

solvers
{
    Exner
    {
        solver PCG;
        preconditioner DIC;
        tolerance        1e-10;
        relTol           0.001;
    }

    ExnerFinal
    {
        $Exner;
        tolerance        1e-10;
        relTol           0;
    }
}

iterations
{
    nOuterCorrectors 4;
    nCorrectors      1;
    nNonOrthogonalCorrectors 0;
}

// ************************************************************************* //
