FoamFile {
    version     2.0;
    format      ascii;
    class       dictionary;
    location    "system";
    object      controlDict;
}

startFrom       startTime;
startTime       0;
stopAt          endTime;
endTime         5000;
deltaT          25;
writeControl    runTime;
writeInterval   5000;
purgeWrite      0;
writeFormat     binary;
writePrecision  6;
writeCompression uncompressed;
timeFormat      general;
timePrecision   6;
runTimeModifiable yes;
adjustTimeStep no;
maxCo          1;
libs           ("libOpenFOAM.so" "libExnerTheta.so" "libspecie.so" "libfiniteVolumeAtmos.so");

