FoamFile {
    version     2.0;
    format      ascii;
    class       dictionary;
    location    "constant";
    object      initialConditions;
}

Tmax 1;
rho0 1;
x0 -50000; // initial tracer position
z0 12000; //9000; //
Ax 25000; // half widths
Az 3000;

