FoamFile {
    version     2.0;
    format      ascii;
    class       dictionary;
    location    "system";
    object      fvSchemes;
}

interpolationSchemes {
    default                 none;
//    interpolate(T)          midPoint;
}

divSchemes {
    default         none;
    div(phi,T)      Gauss linear;
    div(phi,T_0)      Gauss linear;
}

gradSchemes {
    default         none;
}

laplacianSchemes {
    default         none;
}

ddtSchemes {
    default         none;
}

snGradSchemes
{
    default         none;
}

fluxRequired
{
    default         no;
}
