/*---------------------------------------------------------------------------*\
| =========                 |                                                 |
| \\      /  F ield         | OpenFOAM: The Open Source CFD Toolbox           |
|  \\    /   O peration     | Version:  1.4                                   |
|   \\  /    A nd           | Web:      http://www.openfoam.org               |
|    \\/     M anipulation  |                                                 |
\*---------------------------------------------------------------------------*/

FoamFile
{
    version         2.2;
    format          ascii;

    root            "";
    case            "";
    instance        "";
    local           "";

    class           dictionary;
    object          blockMeshDict;
}

// * * * * * * * * * * * * * * * * * * * * * * * * * * * * * * * * * * * * * //

convertToMeters 1;

vertices
(
   (-0.5 0.5 -0.5)
    (0.5 0.5 -0.5)
    (0.5 0.5 0.5)
   (-0.5 0.5 0.5)
   (-0.5 -0.5 -0.5)
    (0.5 -0.5 -0.5)
    (0.5 -0.5 0.5)
   (-0.5 -0.5 0.5)
);

blocks
(
    hex (0 1 2 3 4 5 6 7) (60 60 1) simpleGrading (1 1 1)
);

edges
(
);

boundary
(
    ground
    {
        type cyclic;
        neighbourPatch top;
        matchTolerance 0.1;
        faces ((1 5 4 0));
    }
    top
    {
        type cyclic;
        neighbourPatch ground;
        matchTolerance 0.1;
        faces  ((3 7 6 2));
    }
    left
    {
        type cyclic;
        neighbourPatch right;
        matchTolerance 0.1;
        faces    ((0 4 7 3));
    }
	right
    {
        type cyclic;
        neighbourPatch left;
        matchTolerance 0.1;
        faces    ((2 6 5 1));
    }
    // empty frontAndBack
    // (
    //     (0 3 2 1)
    //     (4 5 6 7)
    // )
);

mergePatchPairs
(
);

// ************************************************************************* //
