FoamFile
{
    version         1.4;
    format          ascii;

    root            "/export/lime/data-04/sws02hs/OpenFOAM/sws02hs-1.4.1/run/shallowWater";
    case            "bucky4_30";
    instance        "constant";
    local           "";

    class           dictionary;
    object          gmtDict;
}

// How to plot
projection "X18c/9c";
projection2D cylinder;
plotBoundaryDots false;

FieldsToPlot
2
(
    [T rawValues -1 1 0.1 "$GMTU/colours/red_white_blue.cpt"]
    [T contours -1.05 1.05 0.1 "black"]
);

// options
region "-180/180/-90/90";
boundaryMarks "a30/a30";
separateLegend true;
//overlay true;
