FoamFile
{
    version         1.4;
    format          ascii;

    root            "/export/lime/data-04/sws02hs/OpenFOAM/sws02hs-1.4.1/run/shallowWater";
    case            "bucky4_30";
    instance        "constant";
    local           "";

    class           dictionary;
    object          gmtDict;
}

// How to plot
projection "X18c/18c";
projection2D XY;

FieldsToPlot
1
(
    [Tdiff filledContours -0.095 0.095 0.01 "$GMTU/colours/red_white_blue.cpt"]
);

// options
overlay false;
lastPlot false;
//region "0/100/0/100";
annotate "minMax 3500 500";
boundaryMarks "a1e3/a1e3";
separateLegend true;

