/*--------------------------------*- C++ -*----------------------------------*\
| =========                 |                                                 |
| \\      /  F ield         | OpenFOAM: The Open Source CFD Toolbox           |
|  \\    /   O peration     | Version:  1.5                                   |
|   \\  /    A nd           | Web:      http://www.OpenFOAM.org               |
|    \\/     M anipulation  |                                                 |
\*---------------------------------------------------------------------------*/
FoamFile
{
    version     2.0;
    format      ascii;
    class       dictionary;
    object      fvSolution;
}
// * * * * * * * * * * * * * * * * * * * * * * * * * * * * * * * * * * * * * //

solvers
{
/*    Phi
    {
        solver PCG;
        smoother ;
        preconditioner   diagonal;
        tolerance        1e-8;
        relTol           1e-4;
        maxIter          2000;
    };
*/
    Phi
    {
        solver BICCG;
        preconditioner DILU;
        tolerance        1e-8;
        relTol           1e-4;
        maxIter          2000;
    };

    // Phi
    // {
    //     solver smoothSolver;
    //     smoother GaussSeidel;
    //     preconditioner   DILU;
    //     tolerance        1e-8;
    //     relTol           1e-4;
    //     maxIter          2000;
    // };

}

relaxationFactors
{
    equations
    {
        Phi               0.99;
    }
}
// ************************************************************************* //
