FoamFile {
    version     2.0;
    format      ascii;
    class       dictionary;
    location    "constant";
    object	setScalarOverOrographyDict;
}

type		schaer1D;
centre      (1 0 0);
halfWidth   (2 1 1);

