FoamFile {
    version     2.0;
    format      ascii;
    class       dictionary;
    location    "constant";
    object      velocityFieldDict;
}

type			horizontal;
speed           0.5;
zeroVelocityHeight -1;
maxVelocityHeight 0;
