/*---------------------------------------------------------------------------*\
| =========                 |                                                 |
| \\      /  F ield         | OpenFOAM: The Open Source CFD Toolbox           |
|  \\    /   O peration     | Version:  1.4                                   |
|   \\  /    A nd           | Web:      http://www.openfoam.org               |
|    \\/     M anipulation  |                                                 |
\*---------------------------------------------------------------------------*/

FoamFile
{
    version         2.0;
    format          ascii;

    root            "";
    case            "";
    instance        "";
    local           "";

    class           dictionary;
    object          environmentalProperties;
}

// * * * * * * * * * * * * * * * * * * * * * * * * * * * * * * * * * * * * * //

cloudRadiusMax     cloudRadiusMax [0 1 0 0 0] 1e6;
cloudRadiusMin     cloudRadiusMin [0 1 0 0 0] 1;
dragCoeff       1e-4;
heatTransferCoeff 0; //0.14;
Ksigma Ksigma [0 2 -1 0 0] 0;

// ************************************************************************* //
