FoamFile {
    version     2.0;
    format      ascii;
    class       dictionary;
    location    "constant";
    object      velocityFieldDict;
}

velocityProfileType	BtfVelocityProfile;
maxVelocity		10;

mountainType		SchaerCosMountain;
domainHeight		25e3;
mountainHalfWidth	25e3;
mountainPeakHeight	3e3;
mountainWavelength	8e3;
