FoamFile {
        version         1.4;
        format          ascii;

        root            "";
        case            "";
        instance        "constant";
        local           "";

        class           dictionary;
        object          gmtDict;
}

projection "X5i/5i";
projection2D XZ;
separateLegend false;
plotBoundaryDots false;

FieldsToPlot (
      [Tf rawValues -1 12 1 "$GMTU/colours/green_linear.cpt"]
      [none mesh "gray"]
      [none numbered 0]
);

region "-0.2/3.2/-0.2/3.2";
