/*---------------------------------------------------------------------------*\
| =========                 |                                                 |
| \\      /  F ield         | OpenFOAM: The Open Source CFD Toolbox           |
|  \\    /   O peration     | Version:  1.4                                   |
|   \\  /    A nd           | Web:      http://www.openfoam.org               |
|    \\/     M anipulation  |                                                 |
\*---------------------------------------------------------------------------*/

FoamFile
{
    version         2.0;
    format          ascii;

    root            "";
    case            "";
    instance        "";
    local           "";

    class           dictionary;
    object          fvSchemes;
}

// * * * * * * * * * * * * * * * * * * * * * * * * * * * * * * * * * * * * * //

ddtSchemes
{
    default Euler;
}
offCentre 0.5;
SIgravityWaves false;

gradSchemes
{
    default         none;
    linearUpwind    Gauss linear;
}

divSchemes
{
    default none;
    div(un,waterVapourRho)   Gauss linearUpwind linearUpwind;
    div(un,waterLiquidFrac)   Gauss linearUpwind linearUpwind;
    div(un,rhoTheta)   Gauss linearUpwind linearUpwind;
    div(un,rhoU)   Gauss linearUpwind linearUpwind;
}

laplacianSchemes
{
    default         Gauss linear uncorrected;
}

interpolationSchemes
{
    default        midPoint;
}

snGradSchemes
{
    default         none;
    snGrad(Exner)   uncorrected;
    snGrad(kappam)   uncorrected;
}

fluxRequired
{
    default         no;
    Exner;
}


// ************************************************************************* //
