/*---------------------------------------------------------------------------*\
| =========                 |                                                 |
| \\      /  F ield         | OpenFOAM: The Open Source CFD Toolbox           |
|  \\    /   O peration     | Version:  1.4                                   |
|   \\  /    A nd           | Web:      http://www.openfoam.org               |
|    \\/     M anipulation  |                                                 |
\*---------------------------------------------------------------------------*/

FoamFile
{
    version         2.0;
    format          ascii;

    root            "";
    case            "";
    instance        "";
    local           "";

    class           dictionary;
    object          fvSchemes;
}

// * * * * * * * * * * * * * * * * * * * * * * * * * * * * * * * * * * * * * //

ddtSchemes
{
    default Euler;
}

SIgravityWaves false;

gradSchemes
{
    default         none;
    grad(theta)     Gauss linearUpwind U forDivUtheta;
    forDivUu        Gauss midPoint;
    forDivUtheta    Gauss midPoint;
}

divSchemes
{
    default             none;
    div(U,u)          Gauss linearUpwind forDivUu;
}

laplacianSchemes
{
    default         none;
    laplacian(gradPcoeff,Exner) Gauss linear uncorrected;
}

interpolationSchemes
{
    default                none; 
    interpolate(theta)     midPoint;
    interpolate(grad(theta)) midPoint; //linearUpwind U grad(theta);
    interpolate(rho)       midPoint;
    interpolate(U)         midPoint;
    interpolate(convection(U,u)) midPoint;
    interpolate(u)         midPoint;
    H                      midPoint;
}

snGradSchemes
{
    default         none;
    snGrad(Exner)   uncorrected;
    snGrad(theta)   uncorrected;
}

fluxRequired
{
    default         no;
    Exner;
}


// ************************************************************************* //
