FoamFile
{
    version         1.4;
    format          ascii;

    root            "";
    case            "";
    instance        "constant";
    local           "";

    class           dictionary;
    object          gmtDict;
}

// How to plot
// Compulsory inputs
projection "X18c/9c";
projection2D XZ;
plotPatch ground;

FieldsToPlot
1
(
    [BruntFreq rawValues 0 0 0 "$GMTU/colours/red_white_blue.cpt"]
);

annotate "minMax 0.01 -0.005";
//region "-6000/6000/0/6000";

