FoamFile
{
    version         1.4;
    format          ascii;

    root            "";
    case            "";
    instance        "constant";
    local           "";

    class           dictionary;
    object          gmtDict;
}

// How to plot
// Compulsory inputs
projection "X18c/9c";
projection2D XZ;
plotPatch ground;

FieldsToPlot
3
(
    [theta rawValues 288 358 5 "$GMTU/colours/white_blue_red.cpt"]
    [Uf    vectors  1e2 11 "black"]
    [none mesh "grey"]
);

//annotate "minMax 0.01 -0.005";
region "-10e3/10e3/0/10e3";
boundaryMarks "5e3/5e3";
separateLegend true;
