/*--------------------------------*- C++ -*----------------------------------*\
| =========                 |                                                 |
| \\      /  F ield         | OpenFOAM: The Open Source CFD Toolbox           |
|  \\    /   O peration     | Version:  dev                                   |
|   \\  /    A nd           | Web:      www.OpenFOAM.org                      |
|    \\/     M anipulation  |                                                 |
\*---------------------------------------------------------------------------*/
FoamFile
{
    version     2.0;
    format      ascii;
    class       surfaceScalarField;
    location    "constant";
    object      gdSfbyd;
}
// * * * * * * * * * * * * * * * * * * * * * * * * * * * * * * * * * * * * * //

dimensions      [0 3 -2 0 0 0 0];

internalField   nonuniform List<scalar> 
39700
(
0
-981000
0
-981000
0
-981000
0
-981000
0
-981000
0
-981000
0
-981000
0
-981000
0
-981000
0
-981000
6.97042423781e-10
-981000
-2.8578739375e-09
-981000
3.62462060366e-09
-981000
-1.46378908994e-09
-981000
0
-981000
0
-981000
0
-981000
0
-981000
0
-981000
0
-981000
0
-981000
0
-981000
-6.97042423781e-10
-981000
1.46378908994e-09
-981000
-7.66746666159e-10
-981000
6.97042423781e-11
-981000
-6.97042423781e-11
-981000
6.97042423781e-11
-981000
0
-981000
6.97042423781e-10
-981000
-1.46378908994e-09
-981000
1.04556363567e-09
-981000
-6.97042423781e-10
-981000
3.4852121189e-10
-981000
0
-981000
7.66746666159e-10
-981000
-2.16083151372e-09
-981000
2.16083151372e-09
-981000
-7.66746666159e-10
-981000
0
-981000
0
-981000
0
-981000
-3.4852121189e-10
-981000
6.97042423781e-10
-981000
-4.18225454268e-10
-981000
-6.27338181403e-10
-981000
1.46378908994e-09
-981000
0
-981000
-1.46378908994e-09
-981000
6.97042423781e-10
-981000
0
-981000
-6.97042423781e-11
-981000
1.39408484756e-10
-981000
-6.97042423781e-11
-981000
-6.97042423781e-11
-981000
1.39408484756e-10
-981000
-6.97042423781e-11
-981000
6.97042423781e-11
-981000
-1.39408484756e-10
-981000
-6.97042423781e-11
-981000
1.04556363567e-09
-981000
-1.67290181707e-09
-981000
1.32438060518e-09
-981000
-1.04556363567e-09
-981000
1.18497212043e-09
-981000
-1.81231030183e-09
-981000
1.67290181707e-09
-981000
-6.27338181403e-10
-981000
3.4852121189e-10
-981000
-4.18225454268e-10
-981000
0
-981000
4.18225454268e-10
-981000
-6.97042423781e-11
-981000
-3.4852121189e-10
-981000
0
-981000
3.4852121189e-10
-981000
1.39408484756e-10
-981000
-4.18225454268e-10
-981000
-6.97042423781e-11
-981000
4.87929696646e-10
-981000
-1.39408484756e-10
-981000
-4.87929696646e-10
-981000
2.78816969512e-10
-981000
0
-981000
-3.4852121189e-10
-981000
8.36450908537e-10
-981000
-8.36450908537e-10
-981000
8.36450908537e-10
-981000
-1.11526787805e-09
-981000
9.06155150915e-10
-981000
-4.18225454268e-10
-981000
3.4852121189e-10
-981000
-4.18225454268e-10
-981000
5.57633939025e-10
-981000
-4.87929696646e-10
-981000
-6.97042423781e-11
-981000
5.57633939025e-10
-981000
-4.87929696646e-10
-981000
0
-981000
0
-981000
-6.97042423781e-11
-981000
5.57633939025e-10
-981000
-5.57633939025e-10
-981000
1.39408484756e-10
-981000
4.18225454268e-10
-981000
-5.57633939025e-10
-981000
0
-981000
1.39408484756e-10
-981000
-6.97042423781e-11
-981000
7.66746666159e-10
-981000
-9.06155150915e-10
-981000
6.97042423781e-10
-981000
-6.97042423781e-10
-981000
6.27338181403e-10
-981000
-6.27338181403e-10
-981000
2.78816969512e-10
-981000
-2.09112727134e-10
-981000
6.97042423781e-11
-981000
4.87929696646e-10
-981000
-5.57633939025e-10
-981000
6.97042423781e-11
-981000
2.09112727134e-10
-981000
1.39408484756e-10
-981000
-3.4852121189e-10
-981000
0
-981000
1.39408484756e-10
-981000
4.87929696646e-10
-981000
-6.27338181403e-10
-981000
0
-981000
5.57633939025e-10
-981000
-4.18225454268e-10
-981000
-1.39408484756e-10
-981000
6.97042423781e-11
-981000
2.78816969512e-10
-981000
0
-981000
-3.4852121189e-10
-981000
2.78816969512e-10
-981000
-2.78816969512e-10
-981000
4.87929696646e-10
-981000
-5.57633939025e-10
-981000
2.09112727134e-10
-981000
0
-981000
0
-981000
0
-981000
0
-981000
6.97042423781e-11
-981000
-6.97042423781e-11
-981000
0
-981000
0
-981000
-3.4852121189e-10
-981000
1.11526787805e-09
-981000
-3.4852121189e-10
-981000
-1.11526787805e-09
-981000
6.97042423781e-10
-981000
0
-981000
4.18225454268e-10
-981000
-7.66746666159e-10
-981000
4.18225454268e-10
-981000
-6.97042423781e-11
-981000
0
-981000
3.4852121189e-10
-981000
-1.04556363567e-09
-981000
3.4852121189e-10
-981000
1.11526787805e-09
-981000
-1.46378908994e-09
-981000
1.11526787805e-09
-981000
6.97042423781e-11
-981000
-4.87929696646e-10
-981000
0
-981000
1.39408484756e-10
-981000
-6.97042423781e-11
-981000
-6.97042423781e-11
-981000
0
-981000
0
-981000
7.66746666159e-10
-981000
-1.46378908994e-09
-981000
6.97042423781e-10
-981000
-4.18225454268e-10
-981000
7.66746666159e-10
-981000
-3.4852121189e-10
-981000
0
-981000
0
-981000
0
-981000
0
-981000
0
-981000
0
-981000
-6.97042423781e-11
-981000
6.97042423781e-11
-981000
0
-981000
0
-981000
0
-981000
6.97042423781e-11
-981000
-6.97042423781e-11
-981000
0
-981000
0
-981000
0
-981000
0
-981000
0
-981000
0
-981000
-981000
0
-981000
0
-981000
0
-981000
0
-981000
0
-981000
0
-981000
0
-981000
0
-981000
0
-981000
0
-981000
5.57633939025e-10
-981000
-1.11526787805e-09
-981000
5.57633939025e-10
-981000
0
-981000
0
-981000
0
-981000
1.39408484756e-09
-981000
-2.78816969512e-09
-981000
1.39408484756e-09
-981000
0
-981000
0
-981000
0
-981000
0
-981000
0
-981000
8.36450908537e-10
-981000
-1.67290181707e-09
-981000
1.67290181707e-09
-981000
-2.50935272561e-09
-981000
2.78816969512e-09
-981000
-1.67290181707e-09
-981000
1.39408484756e-09
-981000
-8.36450908537e-10
-981000
0
-981000
5.57633939025e-10
-981000
-1.11526787805e-09
-981000
1.11526787805e-09
-981000
-5.57633939025e-10
-981000
0
-981000
0
-981000
0
-981000
0
-981000
0
-981000
0
-981000
0
-981000
2.78816969512e-10
-981000
5.57633939025e-10
-981000
-1.39408484756e-09
-981000
-2.78816969512e-10
-981000
1.67290181707e-09
-981000
-8.36450908537e-10
-981000
0
-981000
2.78816969512e-10
-981000
0
-981000
-2.78816969512e-10
-981000
2.78816969512e-10
-981000
0
-981000
0
-981000
2.78816969512e-10
-981000
-1.11526787805e-09
-981000
2.78816969512e-10
-981000
5.57633939025e-10
-981000
-2.78816969512e-10
-981000
0
-981000
2.78816969512e-10
-981000
0
-981000
0
-981000
-2.78816969512e-10
-981000
5.57633939025e-10
-981000
-5.57633939025e-10
-981000
-2.78816969512e-10
-981000
8.36450908537e-10
-981000
-8.36450908537e-10
-981000
2.78816969512e-10
-981000
2.78816969512e-10
-981000
-2.78816969512e-10
-981000
0
-981000
0
-981000
5.57633939025e-10
-981000
-2.78816969512e-10
-981000
-2.78816969512e-10
-981000
0
-981000
2.78816969512e-10
-981000
-2.78816969512e-10
-981000
0
-981000
0
-981000
2.78816969512e-10
-981000
-2.78816969512e-10
-981000
-2.78816969512e-10
-981000
1.11526787805e-09
-981000
-8.36450908537e-10
-981000
-2.78816969512e-10
-981000
5.57633939025e-10
-981000
-5.57633939025e-10
-981000
2.78816969512e-10
-981000
-2.78816969512e-10
-981000
2.78816969512e-10
-981000
0
-981000
2.78816969512e-10
-981000
-2.78816969512e-10
-981000
2.78816969512e-10
-981000
-2.78816969512e-10
-981000
0
-981000
0
-981000
0
-981000
5.57633939025e-10
-981000
-2.78816969512e-10
-981000
-2.78816969512e-10
-981000
-2.78816969512e-10
-981000
0
-981000
2.78816969512e-10
-981000
2.78816969512e-10
-981000
-5.57633939025e-10
-981000
-2.78816969512e-10
-981000
5.57633939025e-10
-981000
5.57633939025e-10
-981000
-2.78816969512e-10
-981000
-2.78816969512e-10
-981000
-2.78816969512e-10
-981000
0
-981000
5.57633939025e-10
-981000
0
-981000
-2.78816969512e-10
-981000
2.78816969512e-10
-981000
-2.78816969512e-10
-981000
2.78816969512e-10
-981000
-2.78816969512e-10
-981000
0
-981000
5.57633939025e-10
-981000
-8.36450908537e-10
-981000
5.57633939025e-10
-981000
0
-981000
-2.78816969512e-10
-981000
0
-981000
2.78816969512e-10
-981000
0
-981000
2.78816969512e-10
-981000
-2.78816969512e-10
-981000
-2.78816969512e-10
-981000
-5.57633939025e-10
-981000
8.36450908537e-10
-981000
-2.78816969512e-10
-981000
0
-981000
0
-981000
2.78816969512e-10
-981000
-2.78816969512e-10
-981000
0
-981000
2.78816969512e-10
-981000
-2.78816969512e-10
-981000
0
-981000
5.57633939025e-10
-981000
-1.11526787805e-09
-981000
5.57633939025e-10
-981000
8.36450908537e-10
-981000
-1.11526787805e-09
-981000
8.36450908537e-10
-981000
0
-981000
-8.36450908537e-10
-981000
2.78816969512e-10
-981000
2.78816969512e-10
-981000
0
-981000
-2.78816969512e-10
-981000
2.78816969512e-10
-981000
5.57633939025e-10
-981000
-1.95171878659e-09
-981000
1.67290181707e-09
-981000
-2.78816969512e-10
-981000
-2.78816969512e-10
-981000
-5.57633939025e-10
-981000
0
-981000
1.11526787805e-09
-981000
-1.39408484756e-09
-981000
1.95171878659e-09
-981000
-1.39408484756e-09
-981000
8.36450908537e-10
-981000
-1.11526787805e-09
-981000
1.11526787805e-09
-981000
2.78816969512e-10
-981000
-1.67290181707e-09
-981000
8.36450908537e-10
-981000
-2.78816969512e-10
-981000
2.78816969512e-10
-981000
2.78816969512e-10
-981000
-2.78816969512e-10
-981000
0
-981000
-2.78816969512e-10
-981000
2.78816969512e-10
-981000
0
-981000
0
-981000
5.57633939025e-10
-981000
-1.39408484756e-09
-981000
8.36450908537e-10
-981000
2.78816969512e-10
-981000
-2.78816969512e-10
-981000
-2.78816969512e-10
-981000
2.78816969512e-10
-981000
0
-981000
0
-981000
0
-981000
0
-981000
-981000
0
-981000
0
-981000
0
-981000
0
-981000
0
-981000
0
-981000
0
-981000
0
-981000
-2.78816969512e-10
-981000
2.78816969512e-10
-981000
0
-981000
0
-981000
0
-981000
0
-981000
0
-981000
-5.57633939025e-10
-981000
2.78816969512e-10
-981000
1.67290181707e-09
-981000
-1.39408484756e-09
-981000
0
-981000
0
-981000
0
-981000
0
-981000
0
-981000
0
-981000
0
-981000
-5.57633939025e-10
-981000
1.95171878659e-09
-981000
-1.67290181707e-09
-981000
1.11526787805e-09
-981000
-1.39408484756e-09
-981000
2.78816969512e-10
-981000
1.11526787805e-09
-981000
-1.11526787805e-09
-981000
1.39408484756e-09
-981000
-1.11526787805e-09
-981000
0
-981000
2.78816969512e-10
-981000
-2.78816969512e-10
-981000
0
-981000
0
-981000
0
-981000
8.36450908537e-10
-981000
-1.39408484756e-09
-981000
8.36450908537e-10
-981000
-2.78816969512e-10
-981000
0
-981000
8.36450908537e-10
-981000
-1.39408484756e-09
-981000
5.57633939025e-10
-981000
0
-981000
0
-981000
0
-981000
-2.78816969512e-10
-981000
8.36450908537e-10
-981000
-5.57633939025e-10
-981000
2.78816969512e-10
-981000
-2.78816969512e-10
-981000
5.57633939025e-10
-981000
-1.11526787805e-09
-981000
2.78816969512e-10
-981000
8.36450908537e-10
-981000
-5.57633939025e-10
-981000
0
-981000
0
-981000
2.78816969512e-10
-981000
0
-981000
-2.78816969512e-10
-981000
-2.78816969512e-10
-981000
8.36450908537e-10
-981000
-5.57633939025e-10
-981000
2.78816969512e-10
-981000
-2.78816969512e-10
-981000
0
-981000
2.78816969512e-10
-981000
-5.57633939025e-10
-981000
2.78816969512e-10
-981000
0
-981000
0
-981000
0
-981000
5.57633939025e-10
-981000
-8.36450908537e-10
-981000
-2.78816969512e-10
-981000
5.57633939025e-10
-981000
1.11526787805e-09
-981000
-1.39408484756e-09
-981000
2.78816969512e-10
-981000
5.57633939025e-10
-981000
-1.39408484756e-09
-981000
1.11526787805e-09
-981000
0
-981000
-5.57633939025e-10
-981000
8.36450908537e-10
-981000
-1.11526787805e-09
-981000
1.39408484756e-09
-981000
-8.36450908537e-10
-981000
5.57633939025e-10
-981000
0
-981000
-5.57633939025e-10
-981000
-2.78816969512e-10
-981000
5.57633939025e-10
-981000
-2.78816969512e-10
-981000
2.78816969512e-10
-981000
2.78816969512e-10
-981000
-1.11526787805e-09
-981000
2.78816969512e-10
-981000
5.57633939025e-10
-981000
2.78816969512e-10
-981000
-5.57633939025e-10
-981000
0
-981000
-5.57633939025e-10
-981000
5.57633939025e-10
-981000
0
-981000
5.57633939025e-10
-981000
-5.57633939025e-10
-981000
-2.78816969512e-10
-981000
1.11526787805e-09
-981000
-8.36450908537e-10
-981000
0
-981000
0
-981000
0
-981000
-5.57633939025e-10
-981000
5.57633939025e-10
-981000
-2.78816969512e-10
-981000
2.78816969512e-10
-981000
2.78816969512e-10
-981000
-2.78816969512e-10
-981000
0
-981000
8.36450908537e-10
-981000
-5.57633939025e-10
-981000
-2.78816969512e-10
-981000
0
-981000
0
-981000
2.78816969512e-10
-981000
-5.57633939025e-10
-981000
0
-981000
1.11526787805e-09
-981000
-8.36450908537e-10
-981000
2.78816969512e-10
-981000
-2.78816969512e-10
-981000
0
-981000
0
-981000
0
-981000
5.57633939025e-10
-981000
-8.36450908537e-10
-981000
5.57633939025e-10
-981000
0
-981000
-2.78816969512e-10
-981000
0
-981000
-2.78816969512e-10
-981000
5.57633939025e-10
-981000
0
-981000
0
-981000
0
-981000
2.78816969512e-10
-981000
-1.11526787805e-09
-981000
1.39408484756e-09
-981000
-5.57633939025e-10
-981000
0
-981000
0
-981000
-5.57633939025e-10
-981000
8.36450908537e-10
-981000
-2.78816969512e-10
-981000
2.78816969512e-10
-981000
-5.57633939025e-10
-981000
-8.36450908537e-10
-981000
5.57633939025e-10
-981000
2.78816969512e-10
-981000
5.57633939025e-10
-981000
-5.57633939025e-10
-981000
8.36450908537e-10
-981000
-1.39408484756e-09
-981000
8.36450908537e-10
-981000
2.78816969512e-10
-981000
2.78816969512e-10
-981000
-1.11526787805e-09
-981000
0
-981000
1.11526787805e-09
-981000
-1.11526787805e-09
-981000
2.78816969512e-10
-981000
-2.78816969512e-10
-981000
8.36450908537e-10
-981000
-5.57633939025e-10
-981000
0
-981000
0
-981000
0
-981000
2.78816969512e-10
-981000
-2.78816969512e-10
-981000
-5.57633939025e-10
-981000
1.39408484756e-09
-981000
-8.36450908537e-10
-981000
5.57633939025e-10
-981000
-5.57633939025e-10
-981000
2.78816969512e-10
-981000
-2.78816969512e-10
-981000
0
-981000
0
-981000
8.36450908537e-10
-981000
-1.67290181707e-09
-981000
-981000
0
-981000
0
-981000
0
-981000
0
-981000
0
-981000
-1.11526787805e-09
-981000
2.2305357561e-09
-981000
-1.11526787805e-09
-981000
0
-981000
0
-981000
-1.11526787805e-09
-981000
2.2305357561e-09
-981000
-1.11526787805e-09
-981000
0
-981000
0
-981000
1.11526787805e-09
-981000
-1.67290181707e-09
-981000
5.57633939025e-10
-981000
0
-981000
-5.57633939025e-10
-981000
1.11526787805e-09
-981000
-5.57633939025e-10
-981000
0
-981000
0
-981000
0
-981000
0
-981000
5.57633939025e-10
-981000
0
-981000
-5.57633939025e-10
-981000
0
-981000
0
-981000
1.11526787805e-09
-981000
-1.11526787805e-09
-981000
0
-981000
5.57633939025e-10
-981000
-1.11526787805e-09
-981000
0
-981000
5.57633939025e-10
-981000
-5.57633939025e-10
-981000
5.57633939025e-10
-981000
0
-981000
0
-981000
0
-981000
1.11526787805e-09
-981000
-1.67290181707e-09
-981000
1.11526787805e-09
-981000
0
-981000
-5.57633939025e-10
-981000
1.11526787805e-09
-981000
-1.67290181707e-09
-981000
1.11526787805e-09
-981000
0
-981000
0
-981000
0
-981000
-5.57633939025e-10
-981000
5.57633939025e-10
-981000
-5.57633939025e-10
-981000
-5.57633939025e-10
-981000
5.57633939025e-10
-981000
0
-981000
5.57633939025e-10
-981000
-5.57633939025e-10
-981000
5.57633939025e-10
-981000
0
-981000
-5.57633939025e-10
-981000
-5.57633939025e-10
-981000
5.57633939025e-10
-981000
5.57633939025e-10
-981000
0
-981000
-5.57633939025e-10
-981000
0
-981000
0
-981000
0
-981000
0
-981000
0
-981000
5.57633939025e-10
-981000
-5.57633939025e-10
-981000
0
-981000
5.57633939025e-10
-981000
0
-981000
-5.57633939025e-10
-981000
0
-981000
1.67290181707e-09
-981000
-1.11526787805e-09
-981000
-5.57633939025e-10
-981000
0
-981000
5.57633939025e-10
-981000
0
-981000
0
-981000
-5.57633939025e-10
-981000
-5.57633939025e-10
-981000
1.11526787805e-09
-981000
0
-981000
5.57633939025e-10
-981000
-1.11526787805e-09
-981000
0
-981000
5.57633939025e-10
-981000
-5.57633939025e-10
-981000
-5.57633939025e-10
-981000
0
-981000
0
-981000
5.57633939025e-10
-981000
5.57633939025e-10
-981000
-1.11526787805e-09
-981000
1.67290181707e-09
-981000
-1.11526787805e-09
-981000
5.57633939025e-10
-981000
-1.11526787805e-09
-981000
1.67290181707e-09
-981000
-1.67290181707e-09
-981000
1.11526787805e-09
-981000
0
-981000
-5.57633939025e-10
-981000
0
-981000
-5.57633939025e-10
-981000
1.11526787805e-09
-981000
-1.11526787805e-09
-981000
1.67290181707e-09
-981000
-1.11526787805e-09
-981000
0
-981000
0
-981000
0
-981000
0
-981000
-5.57633939025e-10
-981000
5.57633939025e-10
-981000
0
-981000
0
-981000
0
-981000
0
-981000
0
-981000
-5.57633939025e-10
-981000
1.11526787805e-09
-981000
-5.57633939025e-10
-981000
0
-981000
0
-981000
0
-981000
1.11526787805e-09
-981000
-1.11526787805e-09
-981000
5.57633939025e-10
-981000
0
-981000
0
-981000
-5.57633939025e-10
-981000
5.57633939025e-10
-981000
-5.57633939025e-10
-981000
1.11526787805e-09
-981000
-5.57633939025e-10
-981000
5.57633939025e-10
-981000
-5.57633939025e-10
-981000
-5.57633939025e-10
-981000
0
-981000
0
-981000
1.11526787805e-09
-981000
0
-981000
-1.11526787805e-09
-981000
1.11526787805e-09
-981000
-1.11526787805e-09
-981000
0
-981000
5.57633939025e-10
-981000
5.57633939025e-10
-981000
0
-981000
-1.11526787805e-09
-981000
5.57633939025e-10
-981000
0
-981000
5.57633939025e-10
-981000
-1.67290181707e-09
-981000
1.11526787805e-09
-981000
-5.57633939025e-10
-981000
1.11526787805e-09
-981000
-1.67290181707e-09
-981000
5.57633939025e-10
-981000
1.11526787805e-09
-981000
0
-981000
-1.11526787805e-09
-981000
5.57633939025e-10
-981000
-5.57633939025e-10
-981000
5.57633939025e-10
-981000
-5.57633939025e-10
-981000
1.11526787805e-09
-981000
-1.67290181707e-09
-981000
1.11526787805e-09
-981000
-1.11526787805e-09
-981000
5.57633939025e-10
-981000
0
-981000
0
-981000
0
-981000
-5.57633939025e-10
-981000
5.57633939025e-10
-981000
0
-981000
5.57633939025e-10
-981000
-5.57633939025e-10
-981000
0
-981000
0
-981000
0
-981000
5.57633939025e-10
-981000
-5.57633939025e-10
-981000
0
-981000
0
-981000
0
-981000
1.11526787805e-09
-981000
-981000
0
-981000
0
-981000
0
-981000
0
-981000
0
-981000
1.67290181707e-09
-981000
-2.2305357561e-09
-981000
5.57633939025e-10
-981000
0
-981000
0
-981000
1.67290181707e-09
-981000
-2.2305357561e-09
-981000
5.57633939025e-10
-981000
0
-981000
0
-981000
0
-981000
0
-981000
0
-981000
0
-981000
1.11526787805e-09
-981000
-1.67290181707e-09
-981000
5.57633939025e-10
-981000
0
-981000
0
-981000
0
-981000
0
-981000
5.57633939025e-10
-981000
5.57633939025e-10
-981000
-5.57633939025e-10
-981000
-1.11526787805e-09
-981000
1.11526787805e-09
-981000
-5.57633939025e-10
-981000
0
-981000
0
-981000
0
-981000
0
-981000
-5.57633939025e-10
-981000
1.67290181707e-09
-981000
-1.11526787805e-09
-981000
0
-981000
5.57633939025e-10
-981000
-5.57633939025e-10
-981000
0
-981000
0
-981000
5.57633939025e-10
-981000
-1.11526787805e-09
-981000
1.11526787805e-09
-981000
5.57633939025e-10
-981000
-1.67290181707e-09
-981000
1.67290181707e-09
-981000
-1.67290181707e-09
-981000
1.11526787805e-09
-981000
-5.57633939025e-10
-981000
5.57633939025e-10
-981000
-5.57633939025e-10
-981000
1.11526787805e-09
-981000
-5.57633939025e-10
-981000
-5.57633939025e-10
-981000
5.57633939025e-10
-981000
-5.57633939025e-10
-981000
0
-981000
1.11526787805e-09
-981000
-1.11526787805e-09
-981000
0
-981000
-5.57633939025e-10
-981000
1.67290181707e-09
-981000
-2.2305357561e-09
-981000
1.11526787805e-09
-981000
5.57633939025e-10
-981000
-5.57633939025e-10
-981000
5.57633939025e-10
-981000
-1.11526787805e-09
-981000
1.11526787805e-09
-981000
-5.57633939025e-10
-981000
0
-981000
0
-981000
5.57633939025e-10
-981000
-5.57633939025e-10
-981000
0
-981000
5.57633939025e-10
-981000
-1.11526787805e-09
-981000
1.11526787805e-09
-981000
5.57633939025e-10
-981000
-1.11526787805e-09
-981000
-1.11526787805e-09
-981000
1.11526787805e-09
-981000
0
-981000
0
-981000
-5.57633939025e-10
-981000
5.57633939025e-10
-981000
1.67290181707e-09
-981000
-2.2305357561e-09
-981000
0
-981000
5.57633939025e-10
-981000
0
-981000
0
-981000
5.57633939025e-10
-981000
5.57633939025e-10
-981000
0
-981000
-5.57633939025e-10
-981000
0
-981000
-5.57633939025e-10
-981000
1.11526787805e-09
-981000
-1.11526787805e-09
-981000
5.57633939025e-10
-981000
0
-981000
-1.11526787805e-09
-981000
0
-981000
0
-981000
5.57633939025e-10
-981000
5.57633939025e-10
-981000
-5.57633939025e-10
-981000
5.57633939025e-10
-981000
1.11526787805e-09
-981000
-2.78816969512e-09
-981000
1.67290181707e-09
-981000
-1.11526787805e-09
-981000
1.67290181707e-09
-981000
-1.11526787805e-09
-981000
-5.57633939025e-10
-981000
5.57633939025e-10
-981000
1.11526787805e-09
-981000
-1.67290181707e-09
-981000
5.57633939025e-10
-981000
0
-981000
1.11526787805e-09
-981000
-1.11526787805e-09
-981000
5.57633939025e-10
-981000
-5.57633939025e-10
-981000
5.57633939025e-10
-981000
0
-981000
0
-981000
0
-981000
5.57633939025e-10
-981000
-1.67290181707e-09
-981000
5.57633939025e-10
-981000
5.57633939025e-10
-981000
-1.11526787805e-09
-981000
0
-981000
0
-981000
5.57633939025e-10
-981000
0
-981000
-1.11526787805e-09
-981000
1.67290181707e-09
-981000
0
-981000
-5.57633939025e-10
-981000
5.57633939025e-10
-981000
-1.11526787805e-09
-981000
1.67290181707e-09
-981000
-1.67290181707e-09
-981000
1.11526787805e-09
-981000
0
-981000
-5.57633939025e-10
-981000
5.57633939025e-10
-981000
0
-981000
-5.57633939025e-10
-981000
0
-981000
-5.57633939025e-10
-981000
1.11526787805e-09
-981000
0
-981000
-5.57633939025e-10
-981000
1.11526787805e-09
-981000
-5.57633939025e-10
-981000
0
-981000
-1.11526787805e-09
-981000
5.57633939025e-10
-981000
5.57633939025e-10
-981000
-1.67290181707e-09
-981000
3.34580363415e-09
-981000
-2.2305357561e-09
-981000
0
-981000
5.57633939025e-10
-981000
-1.11526787805e-09
-981000
1.11526787805e-09
-981000
0
-981000
-1.11526787805e-09
-981000
1.11526787805e-09
-981000
-1.67290181707e-09
-981000
2.2305357561e-09
-981000
-1.11526787805e-09
-981000
-5.57633939025e-10
-981000
1.67290181707e-09
-981000
-1.11526787805e-09
-981000
0
-981000
-5.57633939025e-10
-981000
5.57633939025e-10
-981000
5.57633939025e-10
-981000
-5.57633939025e-10
-981000
0
-981000
0
-981000
0
-981000
1.11526787805e-09
-981000
-1.11526787805e-09
-981000
0
-981000
0
-981000
0
-981000
1.67290181707e-09
-981000
-2.2305357561e-09
-981000
5.57633939025e-10
-981000
-981000
-1.11526787805e-09
-981000
2.2305357561e-09
-981000
-1.11526787805e-09
-981000
0
-981000
0
-981000
0
-981000
1.11526787805e-09
-981000
-1.11526787805e-09
-981000
0
-981000
0
-981000
1.11526787805e-09
-981000
-1.11526787805e-09
-981000
0
-981000
0
-981000
0
-981000
0
-981000
0
-981000
0
-981000
0
-981000
0
-981000
0
-981000
0
-981000
2.2305357561e-09
-981000
-3.34580363415e-09
-981000
1.11526787805e-09
-981000
1.11526787805e-09
-981000
0
-981000
-2.2305357561e-09
-981000
2.2305357561e-09
-981000
-1.11526787805e-09
-981000
0
-981000
0
-981000
0
-981000
0
-981000
0
-981000
0
-981000
1.11526787805e-09
-981000
-1.11526787805e-09
-981000
0
-981000
0
-981000
0
-981000
1.11526787805e-09
-981000
-1.11526787805e-09
-981000
0
-981000
0
-981000
1.11526787805e-09
-981000
0
-981000
-1.11526787805e-09
-981000
1.11526787805e-09
-981000
-1.11526787805e-09
-981000
0
-981000
1.11526787805e-09
-981000
-1.11526787805e-09
-981000
1.11526787805e-09
-981000
-1.11526787805e-09
-981000
0
-981000
0
-981000
0
-981000
0
-981000
0
-981000
0
-981000
-1.11526787805e-09
-981000
2.2305357561e-09
-981000
-1.11526787805e-09
-981000
1.11526787805e-09
-981000
-1.11526787805e-09
-981000
0
-981000
1.11526787805e-09
-981000
-1.11526787805e-09
-981000
0
-981000
0
-981000
0
-981000
0
-981000
0
-981000
0
-981000
1.11526787805e-09
-981000
-1.11526787805e-09
-981000
0
-981000
0
-981000
0
-981000
1.11526787805e-09
-981000
-1.11526787805e-09
-981000
-1.11526787805e-09
-981000
1.11526787805e-09
-981000
1.11526787805e-09
-981000
-1.11526787805e-09
-981000
0
-981000
0
-981000
1.11526787805e-09
-981000
-1.11526787805e-09
-981000
0
-981000
0
-981000
1.11526787805e-09
-981000
-2.2305357561e-09
-981000
1.11526787805e-09
-981000
0
-981000
0
-981000
1.11526787805e-09
-981000
0
-981000
-1.11526787805e-09
-981000
1.11526787805e-09
-981000
0
-981000
-1.11526787805e-09
-981000
0
-981000
0
-981000
1.11526787805e-09
-981000
-1.11526787805e-09
-981000
0
-981000
0
-981000
0
-981000
0
-981000
1.11526787805e-09
-981000
-1.11526787805e-09
-981000
0
-981000
0
-981000
-1.11526787805e-09
-981000
1.11526787805e-09
-981000
0
-981000
0
-981000
0
-981000
0
-981000
0
-981000
1.11526787805e-09
-981000
-1.11526787805e-09
-981000
0
-981000
0
-981000
1.11526787805e-09
-981000
-1.11526787805e-09
-981000
0
-981000
-1.11526787805e-09
-981000
1.11526787805e-09
-981000
0
-981000
0
-981000
0
-981000
1.11526787805e-09
-981000
-1.11526787805e-09
-981000
0
-981000
0
-981000
0
-981000
1.11526787805e-09
-981000
-1.11526787805e-09
-981000
0
-981000
0
-981000
0
-981000
1.11526787805e-09
-981000
-1.11526787805e-09
-981000
1.11526787805e-09
-981000
-1.11526787805e-09
-981000
0
-981000
1.11526787805e-09
-981000
-1.11526787805e-09
-981000
1.11526787805e-09
-981000
-1.11526787805e-09
-981000
0
-981000
1.11526787805e-09
-981000
0
-981000
-1.11526787805e-09
-981000
0
-981000
0
-981000
0
-981000
0
-981000
0
-981000
0
-981000
1.11526787805e-09
-981000
-1.11526787805e-09
-981000
0
-981000
0
-981000
0
-981000
0
-981000
1.11526787805e-09
-981000
-1.11526787805e-09
-981000
1.11526787805e-09
-981000
0
-981000
-1.11526787805e-09
-981000
0
-981000
1.11526787805e-09
-981000
-1.11526787805e-09
-981000
0
-981000
0
-981000
0
-981000
0
-981000
0
-981000
0
-981000
0
-981000
0
-981000
0
-981000
1.11526787805e-09
-981000
-1.11526787805e-09
-981000
0
-981000
0
-981000
0
-981000
0
-981000
0
-981000
0
-981000
0
-981000
0
-981000
0
-981000
0
-981000
0
-981000
-981000
1.11526787805e-09
-981000
0
-981000
0
-981000
0
-981000
1.11526787805e-09
-981000
-2.2305357561e-09
-981000
2.2305357561e-09
-981000
-1.11526787805e-09
-981000
0
-981000
1.11526787805e-09
-981000
-2.2305357561e-09
-981000
2.2305357561e-09
-981000
-1.11526787805e-09
-981000
0
-981000
0
-981000
0
-981000
1.11526787805e-09
-981000
-1.11526787805e-09
-981000
0
-981000
0
-981000
0
-981000
1.11526787805e-09
-981000
0
-981000
-1.11526787805e-09
-981000
1.11526787805e-09
-981000
-2.2305357561e-09
-981000
1.11526787805e-09
-981000
-1.11526787805e-09
-981000
0
-981000
2.2305357561e-09
-981000
-1.11526787805e-09
-981000
1.11526787805e-09
-981000
-1.11526787805e-09
-981000
0
-981000
0
-981000
0
-981000
-1.11526787805e-09
-981000
1.11526787805e-09
-981000
0
-981000
1.11526787805e-09
-981000
-1.11526787805e-09
-981000
-1.11526787805e-09
-981000
1.11526787805e-09
-981000
0
-981000
1.11526787805e-09
-981000
-1.11526787805e-09
-981000
1.11526787805e-09
-981000
-1.11526787805e-09
-981000
-1.11526787805e-09
-981000
1.11526787805e-09
-981000
0
-981000
1.11526787805e-09
-981000
-1.11526787805e-09
-981000
0
-981000
2.2305357561e-09
-981000
-2.2305357561e-09
-981000
1.11526787805e-09
-981000
-3.34580363415e-09
-981000
3.34580363415e-09
-981000
-1.11526787805e-09
-981000
1.11526787805e-09
-981000
0
-981000
0
-981000
-1.11526787805e-09
-981000
0
-981000
0
-981000
1.11526787805e-09
-981000
-2.2305357561e-09
-981000
2.2305357561e-09
-981000
-2.2305357561e-09
-981000
1.11526787805e-09
-981000
1.11526787805e-09
-981000
0
-981000
-2.2305357561e-09
-981000
-1.11526787805e-09
-981000
1.11526787805e-09
-981000
2.2305357561e-09
-981000
-2.2305357561e-09
-981000
0
-981000
1.11526787805e-09
-981000
-1.11526787805e-09
-981000
2.2305357561e-09
-981000
-1.11526787805e-09
-981000
0
-981000
0
-981000
0
-981000
0
-981000
1.11526787805e-09
-981000
-2.2305357561e-09
-981000
2.2305357561e-09
-981000
-1.11526787805e-09
-981000
0
-981000
0
-981000
1.11526787805e-09
-981000
-2.2305357561e-09
-981000
0
-981000
2.2305357561e-09
-981000
-2.2305357561e-09
-981000
1.11526787805e-09
-981000
-1.11526787805e-09
-981000
1.11526787805e-09
-981000
1.11526787805e-09
-981000
-2.2305357561e-09
-981000
1.11526787805e-09
-981000
0
-981000
-2.2305357561e-09
-981000
2.2305357561e-09
-981000
0
-981000
0
-981000
1.11526787805e-09
-981000
0
-981000
-2.2305357561e-09
-981000
1.11526787805e-09
-981000
1.11526787805e-09
-981000
-3.34580363415e-09
-981000
2.2305357561e-09
-981000
0
-981000
0
-981000
-1.11526787805e-09
-981000
1.11526787805e-09
-981000
0
-981000
0
-981000
-1.11526787805e-09
-981000
1.11526787805e-09
-981000
0
-981000
0
-981000
0
-981000
0
-981000
0
-981000
1.11526787805e-09
-981000
-1.11526787805e-09
-981000
0
-981000
-1.11526787805e-09
-981000
1.11526787805e-09
-981000
-1.11526787805e-09
-981000
0
-981000
1.11526787805e-09
-981000
0
-981000
0
-981000
0
-981000
0
-981000
0
-981000
1.11526787805e-09
-981000
0
-981000
-1.11526787805e-09
-981000
0
-981000
2.2305357561e-09
-981000
-2.2305357561e-09
-981000
1.11526787805e-09
-981000
-1.11526787805e-09
-981000
0
-981000
1.11526787805e-09
-981000
-2.2305357561e-09
-981000
1.11526787805e-09
-981000
1.11526787805e-09
-981000
-1.11526787805e-09
-981000
1.11526787805e-09
-981000
-1.11526787805e-09
-981000
0
-981000
0
-981000
1.11526787805e-09
-981000
-1.11526787805e-09
-981000
0
-981000
1.11526787805e-09
-981000
-1.11526787805e-09
-981000
0
-981000
0
-981000
0
-981000
-1.11526787805e-09
-981000
1.11526787805e-09
-981000
0
-981000
1.11526787805e-09
-981000
-2.2305357561e-09
-981000
2.2305357561e-09
-981000
0
-981000
-1.11526787805e-09
-981000
0
-981000
1.11526787805e-09
-981000
-1.11526787805e-09
-981000
0
-981000
0
-981000
0
-981000
0
-981000
-1.11526787805e-09
-981000
1.11526787805e-09
-981000
0
-981000
0
-981000
0
-981000
-1.11526787805e-09
-981000
1.11526787805e-09
-981000
0
-981000
0
-981000
-1.11526787805e-09
-981000
0
-981000
0
-981000
1.11526787805e-09
-981000
1.11526787805e-09
-981000
-2.2305357561e-09
-981000
0
-981000
-981000
2.2305357561e-09
-981000
-4.4610715122e-09
-981000
2.2305357561e-09
-981000
0
-981000
0
-981000
1.11526787805e-09
-981000
-1.11526787805e-09
-981000
1.11526787805e-09
-981000
0
-981000
-2.2305357561e-09
-981000
2.2305357561e-09
-981000
-3.34580363415e-09
-981000
2.2305357561e-09
-981000
0
-981000
0
-981000
0
-981000
-1.11526787805e-09
-981000
1.11526787805e-09
-981000
0
-981000
0
-981000
0
-981000
0
-981000
-1.11526787805e-09
-981000
0
-981000
1.11526787805e-09
-981000
0
-981000
-1.11526787805e-09
-981000
3.34580363415e-09
-981000
-2.2305357561e-09
-981000
0
-981000
-1.11526787805e-09
-981000
1.11526787805e-09
-981000
-1.11526787805e-09
-981000
1.11526787805e-09