FoamFile
{
    version         2.3;
    format          ascii;

    root            "";
    case            "";
    instance        "constant";
    local           "";

    class           dictionary;
    object          gmtDict;
}

// How to plot
// Compulsory inputs
projection "X18c/6c";
projection2D XY;

FieldsToPlot
(
    [p filledContours -300 50 25 "$GMTU/colours/red_white_blue.cpt"]
    [Uf vectors 3e-4 27 "black"]
    //[none mesh "grey"]
);

//separateLegend true;
//region "-25e3/25e3/0/25e3";
//annotate "minMax -1.2e3 -800";
//boundaryMarks "5e3/2.5e3";

