FoamFile
{
    version     2.0;
    format      ascii;
    class       dictionary;
    location    "constant";
    object      velocityFieldDict;
}

solidBodyRotation   (0 0.005236 0);
centreOfRotation    (0 0 0);
type solidBodyRotation;

