FoamFile {
    version     2.0;
    format      ascii;
    class       dictionary;
    location    "constant";
    object      add2dMountainDict;
}

mountainType ScharCos;
coordSys BTF;

// top of coordinate system (at or below domain height)
zt 25e3;
// horizontal scale of large scale mountains
a 25e3;
// mountain height
hm 6000; // 3000
// horizontal scale for fine scale mountains (for Schar test case)
lambda 8e3;
