FoamFile {
    version     2.0;
    format      ascii;
    class       dictionary;
    location    "constant";
    object	tracerFieldDict;
}

type		temperatureGradient;
centre          (0 0 -1000);
maxMagnitude    300;
