FoamFile
{
    version     2.0;
    format      ascii;
    class       dictionary;
    location    "constant";
    object      velocityFieldDict;
}

maxVelocity		10;
zeroVelocityHeight	0;
maxVelocityHeight	2000;
solidBodyRotation   (0 -0.005236 0);
centreOfRotation    (0 0 1000);

type solidBodyRotation;
velocityProfileType HorizontalVelocityProfile;
