FoamFile
{
    version         1.4;
    format          ascii;

    root            "";
    case            "";
    instance        "constant";
    local           "";

    class           dictionary;
    object          gmtDict;
}

// How to plot
// Compulsory inputs
projection "X18c/9c";
projection2D XZ;

FieldsToPlot
(
    [thetaDiff filledContours -1.05 1.05 0.1 "$GMTU/colours/red_white_blue.cpt"]
);
annotate "minMax 0.01 -0.005";

//region "-7000/7000/0/7000";
//boundaryMarks "5e3/5e3";
plotBoundaryDots false;

