FoamFile
{
    version         1.4;
    format          ascii;

    root            "";
    case            "";
    instance        "constant";
    local           "";

    class           dictionary;
    object          gmtDict;
}

// How to plot
// Compulsory inputs
projection "X18c/9c";
projection2D XZ;

FieldsToPlot
(
    [thetaDiff filledContours 0 0 0 "$GMTU/colours/red_white_blue.cpt"]
    [UDiff vectors 500 1 "black"]
    [none mesh "grey"]
);

annotate "minMax 0.01 -0.005";
region "-15e3/15e3/0/15e3";
boundaryMarks "5e3/5e3";
//separateLegend true;

