FoamFile
{
    version         2.2;
    format          ascii;

    root            "";
    case            "";
    instance        "constant";
    local           "";

    class           dictionary;
    object          gmtDict;
}

// How to plot
// Compulsory inputs
projection "X18c/9c";
projection2D XZ;
boundaryPatch ground;

FieldsToPlot
2
(
    [Uf vectorContours 1 100 1 "2pt,black" 0]
//    [Uf vectorContours -100 -1 1 "2pt,black,30_30:0" 0]
//    [Uf vectorContours 0 1000 1000 "1pt,black,5_5:0" 0]
    [Uf vectors 1000 17 "2pt,grey"]
);

