FoamFile
{
    version         1.4;
    format          ascii;

    root            "";
    case            "";
    instance        "constant";
    local           "";

    class           dictionary;
    object          gmtDict;
}

// How to plot
// Compulsory inputs
projection "X18c/18c";
projection2D XY;

FieldsToPlot
(
    [vorticity filledContours -1.05e-4 1.05e-4 1e-5 "$GMTU/colours/red_white_blue.cpt"]
    [h contours 0 0 0 "black"]
    [none mesh "grey"]
);

plotBoundaryDots false;
annotate "minMax 0 -38000";

