FoamFile
{
    version         1.4;
    format          ascii;

    root            "";
    case            "";
    instance        "constant";
    local           "";

    class           dictionary;
    object          gmtDict;
}

// How to plot
// Compulsory inputs
projection "X18c/18c";
projection2D XZ;

FieldsToPlot
(
    [buoyant.sigma filledContours -1.025 1.025 0.05 "$GMTU/colours/red_white_blue.cpt"]
    [stable.sigma contours -1.025 1.025 0.05 "black"]
);

//region "-80e3/80e3/0/20000";
annotate "minMax -300 -1005";
separateLegend false;
plotBoundaryDots false;
