FoamFile {
    version     2.0;
    format      ascii;
    class       dictionary;
    location    "system";
    object      controlDict;
}

startFrom       startTime;
startTime       0;
stopAt          endTime;
//endTime         172800;
endTime         5;
deltaT          5;
writeControl    runTime;
//writeInterval   400;
writeInterval   5;
purgeWrite      0;
writeFormat     ascii;
writePrecision  12;
writeCompression uncompressed;
timeFormat      general;
timePrecision   6;
libs           ("libOpenFOAM.so" "libExnerTheta.so" "libspecie.so" "libfiniteVolumeAtmos.so");
