FoamFile
{
    version         1.4;
    format          ascii;

    root            "";
    case            "";
    instance        "constant";
    local           "";

    class           dictionary;
    object          gmtDict;
}

// How to plot
// Compulsory inputs
projection "X18c/18c";
projection2D XZ;

FieldsToPlot
(
    [Exner filledContours 0 0 0 "jet"]
    [gradp vectors 20 21 "black"]
);

annotate "minMax -1e3 -100";
