FoamFile
{
    version         2.3;
    format          ascii;

    root            "";
    case            "";
    instance        "constant";
    local           "";

    class           dictionary;
    object          gmtDict;
}

// How to plot
// Compulsory inputs
projection "X18c/22.5c";
projection2D XZ;

FieldsToPlot
2
(
    [theta filledContours 297.95 302.05 0.1 "$GMTU/colours/red_white_blue.cpt"]
    [none mesh "0.25,grey"]
);

separateLegend true;
region "-5000/5000/0/1.25e4";
annotate "minMax -1.2e3 -400";
boundaryMarks "2500/2500";

