/*--------------------------------*- C++ -*----------------------------------*\
| =========                 |                                                 |
| \\      /  F ield         | OpenFOAM: The Open Source CFD Toolbox           |
|  \\    /   O peration     | Version:  3.0.1                                 |
|   \\  /    A nd           | Web:      www.OpenFOAM.org                      |
|    \\/     M anipulation  |                                                 |
\*---------------------------------------------------------------------------*/
FoamFile
{
    version     2.0;
    format      binary;
    class       polyBoundaryMesh;
    location    "constant/polyMesh";
    object      boundary;
}
// * * * * * * * * * * * * * * * * * * * * * * * * * * * * * * * * * * * * * //

5
(
    inlet
    {
        type            patch;
        nFaces          25;
        startFace       7374;
    }
    outlet
    {
        type            patch;
        nFaces          25;
        startFace       7399;
    }
    ground
    {
        type            wall;
        inGroups        1(wall);
        nFaces          151;
        startFace       7424;
    }
    top
    {
        type            wall;
        inGroups        1(wall);
        nFaces          151;
        startFace       7575;
    }
    frontAndBack
    {
        type            empty;
        inGroups        1(empty);
        nFaces          7550;
        startFace       7726;
    }
)

// ************************************************************************* //
