FoamFile
{
    version     2.0;
    format      ascii;
    class       dictionary;
    location    "constant";
    object      advectionDict;
}

sourceLengthScale sourceLengthScale [0 1 0 0 0] 1000000;
rhoAir rhoAir [0 0 0 0 0] 1;
