FoamFile {
    version     2.0;
    format      ascii;
    class       dictionary;
    location    "system";
    object      controlDict;
}

startFrom       startTime;
startTime       0;
stopAt          endTime;
endTime         610;
deltaT          1.8;
writeControl    runTime;
writeInterval   601.2;
purgeWrite      0;
writeFormat     ascii;
writePrecision  6;
writeCompression uncompressed;
timeFormat      general;
timePrecision   6;
runTimeModifiable no;
adjustTimeStep no;
maxCo          1;
libs           ("libfiniteVolumeAtmos.so");
