FoamFile {
    version     2.0;
    format      ascii;
    class       dictionary;
    location    "constant";
    object	tracerFieldDict;
}

type		schaerBlock;
maxMagnitude    1;
centre          (0 0 500);
halfWidth       (3000 0 3000);
