FoamFile {
    version     2.0;
    format      ascii;
    class       dictionary;
    location    "constant";
    object	tracerFieldDict;
}

type		schaerBlock;
maxMagnitude    0.001;
rhoAir          1;
centre          (0 0 500);
halfWidth       (300 0 300);
