FoamFile
{
    version     2.0;
    format      ascii;
    class       dictionary;
    location    "constant";
    object      velocityFieldDict;
}

maxVelocity		10;
zeroVelocityHeight	-1000; // 4000;
maxVelocityHeight	1000; //5000;
solidBodyRotation   (0 -0.005236 0);
centreOfRotation    (0 0 0);

type solidBodyRotation;
velocityProfileType HorizontalVelocityProfile;
