FoamFile {
    version     2.0;
    format      ascii;
    class       dictionary;
    location    "constant";
    object      add2dMountainDict;
}

type			btf;
domainHeight		25e3;

mountain
{
	type		schaerCos;
	halfWidth	125e3;
	peakHeight	250;
	wavelength	40e3;
//    xOffset     100e3;
}

