/*---------------------------------------------------------------------------*\
| =========                 |                                                 |
| \\      /  F ield         | OpenFOAM: The Open Source CFD Toolbox           |
|  \\    /   O peration     | Version:  1.4                                   |
|   \\  /    A nd           | Web:      http://www.openfoam.org               |
|    \\/     M anipulation  |                                                 |
\*---------------------------------------------------------------------------*/

FoamFile
{
    version         2.2;
    format          ascii;

    root            "";
    case            "";
    instance        "";
    local           "";

    class           dictionary;
    object          blockMeshDict;
}

// * * * * * * * * * * * * * * * * * * * * * * * * * * * * * * * * * * * * * //

convertToMeters 1000;

vertices
(
    (-150 1  0)
    (-30  1  0)
    ( 30  1  0)
    ( 150 1  0)
    (-150 1  30)
    (-30  1  30)
    ( 30  1  30)
    ( 150 1  30)
    (-150 1  80)
    (-30  1  80)
    ( 30  1  80)
    ( 150 1  80)
    (-150 0  0)
    (-30  0  0)
    ( 30  0  0)
    ( 150 0  0)
    (-150 0  30)
    (-30  0  30)
    ( 30  0  30)
    ( 150 0  30)
    (-150 0  80)
    (-30  0  80)
    ( 30  0  80)
    ( 150 0  80)  
);

blocks
(
	hex (0 1 5 4 12 13 17 16) (240 100 1) simpleGrading  (1 1 1)
	hex (1 2 6 5 13 14 18 17) (120 100 1) simpleGrading (1 1 1)
	hex (2 3 7 6 14 15 19 18) (240 100 1) simpleGrading  (1 1 1)
);

edges
();

boundary
(
    ground
    {
        type wall;
        faces
        (
            (0 1 13 12)
            (1 2 14 13)
            (2 3 15 14)
        );
    }
    top
    {
        type wall;
        faces
        (
            (4 16 17 5)
            (5 17 18 6)
            (6 18 19 7)
        );
    }
    inlet
    {
        type inlet;
        faces
        (
            (0 12 16 4)
        );
    }
    outlet
    {
        type outlet;
        faces
        (
            (3 7 19 15)
        );
    }
    front
    {
        type empty;
        faces
        (
            (0 4 5 1)
            (1 5 6 2)
            (2 6 7 3)
        );
    }
    back
    {
        type empty;
        faces
        (
            (12 13 17 16)
            (13 14 18 17)
            (14 15 19 18)
        );
    }
);

mergePatchPairs
(
);

// ************************************************************************* //
