/*--------------------------------*- C++ -*----------------------------------*\
| =========                 |                                                 |
| \\      /  F ield         | OpenFOAM: The Open Source CFD Toolbox           |
|  \\    /   O peration     | Version:  2.3.0                                 |
|   \\  /    A nd           | Web:      www.OpenFOAM.org                      |
|    \\/     M anipulation  |                                                 |
\*---------------------------------------------------------------------------*/
FoamFile
{
    version     2.0;
    format      binary;
    class       polyBoundaryMesh;
    location    "constant/polyMesh";
    object      boundary;
}
// * * * * * * * * * * * * * * * * * * * * * * * * * * * * * * * * * * * * * //

6
(
    ground
    {
        type            wall;
        inGroups        1(wall);
        nFaces          600;
        startFace       119300;
    }
    top
    {
        type            wall;
        inGroups        1(wall);
        nFaces          600;
        startFace       119900;
    }
    inlet
    {
        type            inlet;
        nFaces          100;
        startFace       120500;
        faces           ( ( 0 12 16 4 ) );
    }
    outlet
    {
        type            outlet;
        nFaces          100;
        startFace       120600;
        faces           ( ( 3 7 19 15 ) );
    }
    front
    {
        type            empty;
        inGroups        1(empty);
        nFaces          60000;
        startFace       120700;
    }
    back
    {
        type            empty;
        inGroups        1(empty);
        nFaces          60000;
        startFace       180700;
    }
)

// ************************************************************************* //
