/*--------------------------------*- C++ -*----------------------------------*\
| =========                 |                                                 |
| \\      /  F ield         | OpenFOAM: The Open Source CFD Toolbox           |
|  \\    /   O peration     | Version:  3.0.1                                 |
|   \\  /    A nd           | Web:      www.OpenFOAM.org                      |
|    \\/     M anipulation  |                                                 |
\*---------------------------------------------------------------------------*/
FoamFile
{
    version     2.0;
    format      ascii;
    class       volScalarField;
    location    "constant";
    object      rvRef;
}
// * * * * * * * * * * * * * * * * * * * * * * * * * * * * * * * * * * * * * //

dimensions      [0 0 0 0 0 0 0];

internalField   nonuniform List<scalar> 
40000
(
0.0119565
0.0119565
0.0119565
0.0119565
0.0119565
0.0119565
0.0119565
0.0119565
0.0119565
0.0119565
0.0119565
0.0119565
0.0119565
0.0119565
0.0119565
0.0119565
0.0119565
0.0119565
0.0119565
0.0119565
0.0119565
0.0119565
0.0119565
0.0119565
0.0119565
0.0119565
0.0119565
0.0119565
0.0119565
0.0119565
0.0119565
0.0119565
0.0119565
0.0119565
0.0119565
0.0119565
0.0119565
0.0119565
0.0119565
0.0119565
0.0119565
0.0119565
0.0119565
0.0119565
0.0119565
0.0119565
0.0119565
0.0119565
0.0119565
0.0119565
0.0119565
0.0119565
0.0119565
0.0119565
0.0119565
0.0119565
0.0119565
0.0119565
0.0119565
0.0119565
0.0119565
0.0119565
0.0119565
0.0119565
0.0119565
0.0119565
0.0119565
0.0119565
0.0119565
0.0119565
0.0119565
0.0119565
0.0119565
0.0119565
0.0119565
0.0119565
0.0119565
0.0119565
0.0119565
0.0119565
0.0119565
0.0119565
0.0119565
0.0119565
0.0119565
0.0119565
0.0119565
0.0119565
0.0119565
0.0119565
0.0119565
0.0119565
0.0119565
0.0119565
0.0119565
0.0119565
0.0119565
0.0119565
0.0119565
0.0119565
0.0119565
0.0119565
0.0119565
0.0119565
0.0119565
0.0119565
0.0119565
0.0119565
0.0119565
0.0119565
0.0119565
0.0119565
0.0119565
0.0119565
0.0119565
0.0119565
0.0119565
0.0119565
0.0119565
0.0119565
0.0119565
0.0119565
0.0119565
0.0119565
0.0119565
0.0119565
0.0119565
0.0119565
0.0119565
0.0119565
0.0119565
0.0119565
0.0119565
0.0119565
0.0119565
0.0119565
0.0119565
0.0119565
0.0119565
0.0119565
0.0119565
0.0119565
0.0119565
0.0119565
0.0119565
0.0119565
0.0119565
0.0119565
0.0119565
0.0119565
0.0119565
0.0119565
0.0119565
0.0119565
0.0119565
0.0119565
0.0119565
0.0119565
0.0119565
0.0119565
0.0119565
0.0119565
0.0119565
0.0119565
0.0119565
0.0119565
0.0119565
0.0119565
0.0119565
0.0119565
0.0119565
0.0119565
0.0119565
0.0119565
0.0119565
0.0119565
0.0119565
0.0119565
0.0119565
0.0119565
0.0119565
0.0119565
0.0119565
0.0119565
0.0119565
0.0119565
0.0119565
0.0119565
0.0119565
0.0119565
0.0119565
0.0119565
0.0119565
0.0119565
0.0119565
0.0119565
0.0119565
0.0119565
0.0119565
0.0119565
0.0117455
0.0117455
0.0117455
0.0117455
0.0117455
0.0117455
0.0117455
0.0117455
0.0117455
0.0117455
0.0117455
0.0117455
0.0117455
0.0117455
0.0117455
0.0117455
0.0117455
0.0117455
0.0117455
0.0117455
0.0117455
0.0117455
0.0117455
0.0117455
0.0117455
0.0117455
0.0117455
0.0117455
0.0117455
0.0117455
0.0117455
0.0117455
0.0117455
0.0117455
0.0117455
0.0117455
0.0117455
0.0117455
0.0117455
0.0117455
0.0117455
0.0117455
0.0117455
0.0117455
0.0117455
0.0117455
0.0117455
0.0117455
0.0117455
0.0117455
0.0117455
0.0117455
0.0117455
0.0117455
0.0117455
0.0117455
0.0117455
0.0117455
0.0117455
0.0117455
0.0117455
0.0117455
0.0117455
0.0117455
0.0117455
0.0117455
0.0117455
0.0117455
0.0117455
0.0117455
0.0117455
0.0117455
0.0117455
0.0117455
0.0117455
0.0117455
0.0117455
0.0117455
0.0117455
0.0117455
0.0117455
0.0117455
0.0117455
0.0117455
0.0117455
0.0117455
0.0117455
0.0117455
0.0117455
0.0117455
0.0117455
0.0117455
0.0117455
0.0117455
0.0117455
0.0117455
0.0117455
0.0117455
0.0117455
0.0117455
0.0117455
0.0117455
0.0117455
0.0117455
0.0117455
0.0117455
0.0117455
0.0117455
0.0117455
0.0117455
0.0117455
0.0117455
0.0117455
0.0117455
0.0117455
0.0117455
0.0117455
0.0117455
0.0117455
0.0117455
0.0117455
0.0117455
0.0117455
0.0117455
0.0117455
0.0117455
0.0117455
0.0117455
0.0117455
0.0117455
0.0117455
0.0117455
0.0117455
0.0117455
0.0117455
0.0117455
0.0117455
0.0117455
0.0117455
0.0117455
0.0117455
0.0117455
0.0117455
0.0117455
0.0117455
0.0117455
0.0117455
0.0117455
0.0117455
0.0117455
0.0117455
0.0117455
0.0117455
0.0117455
0.0117455
0.0117455
0.0117455
0.0117455
0.0117455
0.0117455
0.0117455
0.0117455
0.0117455
0.0117455
0.0117455
0.0117455
0.0117455
0.0117455
0.0117455
0.0117455
0.0117455
0.0117455
0.0117455
0.0117455
0.0117455
0.0117455
0.0117455
0.0117455
0.0117455
0.0117455
0.0117455
0.0117455
0.0117455
0.0117455
0.0117455
0.0117455
0.0117455
0.0117455
0.0117455
0.0117455
0.0117455
0.0117455
0.0117455
0.0117455
0.0117455
0.0117455
0.0117455
0.0117455
0.0117455
0.0117455
0.0115356
0.0115356
0.0115356
0.0115356
0.0115356
0.0115356
0.0115356
0.0115356
0.0115356
0.0115356
0.0115356
0.0115356
0.0115356
0.0115356
0.0115356
0.0115356
0.0115356
0.0115356
0.0115356
0.0115356
0.0115356
0.0115356
0.0115356
0.0115356
0.0115356
0.0115356
0.0115356
0.0115356
0.0115356
0.0115356
0.0115356
0.0115356
0.0115356
0.0115356
0.0115356
0.0115356
0.0115356
0.0115356
0.0115356
0.0115356
0.0115356
0.0115356
0.0115356
0.0115356
0.0115356
0.0115356
0.0115356
0.0115356
0.0115356
0.0115356
0.0115356
0.0115356
0.0115356
0.0115356
0.0115356
0.0115356
0.0115356
0.0115356
0.0115356
0.0115356
0.0115356
0.0115356
0.0115356
0.0115356
0.0115356
0.0115356
0.0115356
0.0115356
0.0115356
0.0115356
0.0115356
0.0115356
0.0115356
0.0115356
0.0115356
0.0115356
0.0115356
0.0115356
0.0115356
0.0115356
0.0115356
0.0115356
0.0115356
0.0115356
0.0115356
0.0115356
0.0115356
0.0115356
0.0115356
0.0115356
0.0115356
0.0115356
0.0115356
0.0115356
0.0115356
0.0115356
0.0115356
0.0115356
0.0115356
0.0115356
0.0115356
0.0115356
0.0115356
0.0115356
0.0115356
0.0115356
0.0115356
0.0115356
0.0115356
0.0115356
0.0115356
0.0115356
0.0115356
0.0115356
0.0115356
0.0115356
0.0115356
0.0115356
0.0115356
0.0115356
0.0115356
0.0115356
0.0115356
0.0115356
0.0115356
0.0115356
0.0115356
0.0115356
0.0115356
0.0115356
0.0115356
0.0115356
0.0115356
0.0115356
0.0115356
0.0115356
0.0115356
0.0115356
0.0115356
0.0115356
0.0115356
0.0115356
0.0115356
0.0115356
0.0115356
0.0115356
0.0115356
0.0115356
0.0115356
0.0115356
0.0115356
0.0115356
0.0115356
0.0115356
0.0115356
0.0115356
0.0115356
0.0115356
0.0115356
0.0115356
0.0115356
0.0115356
0.0115356
0.0115356
0.0115356
0.0115356
0.0115356
0.0115356
0.0115356
0.0115356
0.0115356
0.0115356
0.0115356
0.0115356
0.0115356
0.0115356
0.0115356
0.0115356
0.0115356
0.0115356
0.0115356
0.0115356
0.0115356
0.0115356
0.0115356
0.0115356
0.0115356
0.0115356
0.0115356
0.0115356
0.0115356
0.0115356
0.0115356
0.0115356
0.0115356
0.0115356
0.0115356
0.0115356
0.0115356
0.0115356
0.0113269
0.0113269
0.0113269
0.0113269
0.0113269
0.0113269
0.0113269
0.0113269
0.0113269
0.0113269
0.0113269
0.0113269
0.0113269
0.0113269
0.0113269
0.0113269
0.0113269
0.0113269
0.0113269
0.0113269
0.0113269
0.0113269
0.0113269
0.0113269
0.0113269
0.0113269
0.0113269
0.0113269
0.0113269
0.0113269
0.0113269
0.0113269
0.0113269
0.0113269
0.0113269
0.0113269
0.0113269
0.0113269
0.0113269
0.0113269
0.0113269
0.0113269
0.0113269
0.0113269
0.0113269
0.0113269
0.0113269
0.0113269
0.0113269
0.0113269
0.0113269
0.0113269
0.0113269
0.0113269
0.0113269
0.0113269
0.0113269
0.0113269
0.0113269
0.0113269
0.0113269
0.0113269
0.0113269
0.0113269
0.0113269
0.0113269
0.0113269
0.0113269
0.0113269
0.0113269
0.0113269
0.0113269
0.0113269
0.0113269
0.0113269
0.0113269
0.0113269
0.0113269
0.0113269
0.0113269
0.0113269
0.0113269
0.0113269
0.0113269
0.0113269
0.0113269
0.0113269
0.0113269
0.0113269
0.0113269
0.0113269
0.0113269
0.0113269
0.0113269
0.0113269
0.0113269
0.0113269
0.0113269
0.0113269
0.0113269
0.0113269
0.0113269
0.0113269
0.0113269
0.0113269
0.0113269
0.0113269
0.0113269
0.0113269
0.0113269
0.0113269
0.0113269
0.0113269
0.0113269
0.0113269
0.0113269
0.0113269
0.0113269
0.0113269
0.0113269
0.0113269
0.0113269
0.0113269
0.0113269
0.0113269
0.0113269
0.0113269
0.0113269
0.0113269
0.0113269
0.0113269
0.0113269
0.0113269
0.0113269
0.0113269
0.0113269
0.0113269
0.0113269
0.0113269
0.0113269
0.0113269
0.0113269
0.0113269
0.0113269
0.0113269
0.0113269
0.0113269
0.0113269
0.0113269
0.0113269
0.0113269
0.0113269
0.0113269
0.0113269
0.0113269
0.0113269
0.0113269
0.0113269
0.0113269
0.0113269
0.0113269
0.0113269
0.0113269
0.0113269
0.0113269
0.0113269
0.0113269
0.0113269
0.0113269
0.0113269
0.0113269
0.0113269
0.0113269
0.0113269
0.0113269
0.0113269
0.0113269
0.0113269
0.0113269
0.0113269
0.0113269
0.0113269
0.0113269
0.0113269
0.0113269
0.0113269
0.0113269
0.0113269
0.0113269
0.0113269
0.0113269
0.0113269
0.0113269
0.0113269
0.0113269
0.0113269
0.0113269
0.0113269
0.0113269
0.0113269
0.0111194
0.0111194
0.0111194
0.0111194
0.0111194
0.0111194
0.0111194
0.0111194
0.0111194
0.0111194
0.0111194
0.0111194
0.0111194
0.0111194
0.0111194
0.0111194
0.0111194
0.0111194
0.0111194
0.0111194
0.0111194
0.0111194
0.0111194
0.0111194
0.0111194
0.0111194
0.0111194
0.0111194
0.0111194
0.0111194
0.0111194
0.0111194
0.0111194
0.0111194
0.0111194
0.0111194
0.0111194
0.0111194
0.0111194
0.0111194
0.0111194
0.0111194
0.0111194
0.0111194
0.0111194
0.0111194
0.0111194
0.0111194
0.0111194
0.0111194
0.0111194
0.0111194
0.0111194
0.0111194
0.0111194
0.0111194
0.0111194
0.0111194
0.0111194
0.0111194
0.0111194
0.0111194
0.0111194
0.0111194
0.0111194
0.0111194
0.0111194
0.0111194
0.0111194
0.0111194
0.0111194
0.0111194
0.0111194
0.0111194
0.0111194
0.0111194
0.0111194
0.0111194
0.0111194
0.0111194
0.0111194
0.0111194
0.0111194
0.0111194
0.0111194
0.0111194
0.0111194
0.0111194
0.0111194
0.0111194
0.0111194
0.0111194
0.0111194
0.0111194
0.0111194
0.0111194
0.0111194
0.0111194
0.0111194
0.0111194
0.0111194
0.0111194
0.0111194
0.0111194
0.0111194
0.0111194
0.0111194
0.0111194
0.0111194
0.0111194
0.0111194
0.0111194
0.0111194
0.0111194
0.0111194
0.0111194
0.0111194
0.0111194
0.0111194
0.0111194
0.0111194
0.0111194
0.0111194
0.0111194
0.0111194
0.0111194
0.0111194
0.0111194
0.0111194
0.0111194
0.0111194
0.0111194
0.0111194
0.0111194
0.0111194
0.0111194
0.0111194
0.0111194
0.0111194
0.0111194
0.0111194
0.0111194
0.0111194
0.0111194
0.0111194
0.0111194
0.0111194
0.0111194
0.0111194
0.0111194
0.0111194
0.0111194
0.0111194
0.0111194
0.0111194
0.0111194
0.0111194
0.0111194
0.0111194
0.0111194
0.0111194
0.0111194
0.0111194
0.0111194
0.0111194
0.0111194
0.0111194
0.0111194
0.0111194
0.0111194
0.0111194
0.0111194
0.0111194
0.0111194
0.0111194
0.0111194
0.0111194
0.0111194
0.0111194
0.0111194
0.0111194
0.0111194
0.0111194
0.0111194
0.0111194
0.0111194
0.0111194
0.0111194
0.0111194
0.0111194
0.0111194
0.0111194
0.0111194
0.0111194
0.0111194
0.0111194
0.0111194
0.0111194
0.0111194
0.0111194
0.0109131
0.0109131
0.0109131
0.0109131
0.0109131
0.0109131
0.0109131
0.0109131
0.0109131
0.0109131
0.0109131
0.0109131
0.0109131
0.0109131
0.0109131
0.0109131
0.0109131
0.0109131
0.0109131
0.0109131
0.0109131
0.0109131
0.0109131
0.0109131
0.0109131
0.0109131
0.0109131
0.0109131
0.0109131
0.0109131
0.0109131
0.0109131
0.0109131
0.0109131
0.0109131
0.0109131
0.0109131
0.0109131
0.0109131
0.0109131
0.0109131
0.0109131
0.0109131
0.0109131
0.0109131
0.0109131
0.0109131
0.0109131
0.0109131
0.0109131
0.0109131
0.0109131
0.0109131
0.0109131
0.0109131
0.0109131
0.0109131
0.0109131
0.0109131
0.0109131
0.0109131
0.0109131
0.0109131
0.0109131
0.0109131
0.0109131
0.0109131
0.0109131
0.0109131
0.0109131
0.0109131
0.0109131
0.0109131
0.0109131
0.0109131
0.0109131
0.0109131
0.0109131
0.0109131
0.0109131
0.0109131
0.0109131
0.0109131
0.0109131
0.0109131
0.0109131
0.0109131
0.0109131
0.0109131
0.0109131
0.0109131
0.0109131
0.0109131
0.0109131
0.0109131
0.0109131
0.0109131
0.0109131
0.0109131
0.0109131
0.0109131
0.0109131
0.0109131
0.0109131
0.0109131
0.0109131
0.0109131
0.0109131
0.0109131
0.0109131
0.0109131
0.0109131
0.0109131
0.0109131
0.0109131
0.0109131
0.0109131
0.0109131
0.0109131
0.0109131
0.0109131
0.0109131
0.0109131
0.0109131
0.0109131
0.0109131
0.0109131
0.0109131
0.0109131
0.0109131
0.0109131
0.0109131
0.0109131
0.0109131
0.0109131
0.0109131
0.0109131
0.0109131
0.0109131
0.0109131
0.0109131
0.0109131
0.0109131
0.0109131
0.0109131
0.0109131
0.0109131
0.0109131
0.0109131
0.0109131
0.0109131
0.0109131
0.0109131
0.0109131
0.0109131
0.0109131
0.0109131
0.0109131
0.0109131
0.0109131
0.0109131
0.0109131
0.0109131
0.0109131
0.0109131
0.0109131
0.0109131
0.0109131
0.0109131
0.0109131
0.0109131
0.0109131
0.0109131
0.0109131
0.0109131
0.0109131
0.0109131
0.0109131
0.0109131
0.0109131
0.0109131
0.0109131
0.0109131
0.0109131
0.0109131
0.0109131
0.0109131
0.0109131
0.0109131
0.0109131
0.0109131
0.0109131
0.0109131
0.0109131
0.0109131
0.0109131
0.0109131
0.0109131
0.0109131
0.0109131
0.0107082
0.0107082
0.0107082
0.0107082
0.0107082
0.0107082
0.0107082
0.0107082
0.0107082
0.0107082
0.0107082
0.0107082
0.0107082
0.0107082
0.0107082
0.0107082
0.0107082
0.0107082
0.0107082
0.0107082
0.0107082
0.0107082
0.0107082
0.0107082
0.0107082
0.0107082
0.0107082
0.0107082
0.0107082
0.0107082
0.0107082
0.0107082
0.0107082
0.0107082
0.0107082
0.0107082
0.0107082
0.0107082
0.0107082
0.0107082
0.0107082
0.0107082
0.0107082
0.0107082
0.0107082
0.0107082
0.0107082
0.0107082
0.0107082
0.0107082
0.0107082
0.0107082
0.0107082
0.0107082
0.0107082
0.0107082
0.0107082
0.0107082
0.0107082
0.0107082
0.0107082
0.0107082
0.0107082
0.0107082
0.0107082
0.0107082
0.0107082
0.0107082
0.0107082
0.0107082
0.0107082
0.0107082
0.0107082
0.0107082
0.0107082
0.0107082
0.0107082
0.0107082
0.0107082
0.0107082
0.0107082
0.0107082
0.0107082
0.0107082
0.0107082
0.0107082
0.0107082
0.0107082
0.0107082
0.0107082
0.0107082
0.0107082
0.0107082
0.0107082
0.0107082
0.0107082
0.0107082
0.0107082
0.0107082
0.0107082
0.0107082
0.0107082
0.0107082
0.0107082
0.0107082
0.0107082
0.0107082
0.0107082
0.0107082
0.0107082
0.0107082
0.0107082
0.0107082
0.0107082
0.0107082
0.0107082
0.0107082
0.0107082
0.0107082
0.0107082
0.0107082
0.0107082
0.0107082
0.0107082
0.0107082
0.0107082
0.0107082
0.0107082
0.0107082
0.0107082
0.0107082
0.0107082
0.0107082
0.0107082
0.0107082
0.0107082
0.0107082
0.0107082
0.0107082
0.0107082
0.0107082
0.0107082
0.0107082
0.0107082
0.0107082
0.0107082
0.0107082
0.0107082
0.0107082
0.0107082
0.0107082
0.0107082
0.0107082
0.0107082
0.0107082
0.0107082
0.0107082
0.0107082
0.0107082
0.0107082
0.0107082
0.0107082
0.0107082
0.0107082
0.0107082
0.0107082
0.0107082
0.0107082
0.0107082
0.0107082
0.0107082
0.0107082
0.0107082
0.0107082
0.0107082
0.0107082
0.0107082
0.0107082
0.0107082
0.0107082
0.0107082
0.0107082
0.0107082
0.0107082
0.0107082
0.0107082
0.0107082
0.0107082
0.0107082
0.0107082
0.0107082
0.0107082
0.0107082
0.0107082
0.0107082
0.0107082
0.0107082
0.0107082
0.0107082
0.0107082
0.0105045
0.0105045
0.0105045
0.0105045
0.0105045
0.0105045
0.0105045
0.0105045
0.0105045
0.0105045
0.0105045
0.0105045
0.0105045
0.0105045
0.0105045
0.0105045
0.0105045
0.0105045
0.0105045
0.0105045
0.0105045
0.0105045
0.0105045
0.0105045
0.0105045
0.0105045
0.0105045
0.0105045
0.0105045
0.0105045
0.0105045
0.0105045
0.0105045
0.0105045
0.0105045
0.0105045
0.0105045
0.0105045
0.0105045
0.0105045
0.0105045
0.0105045
0.0105045
0.0105045
0.0105045
0.0105045
0.0105045
0.0105045
0.0105045
0.0105045
0.0105045
0.0105045
0.0105045
0.0105045
0.0105045
0.0105045
0.0105045
0.0105045
0.0105045
0.0105045
0.0105045
0.0105045
0.0105045
0.0105045
0.0105045
0.0105045
0.0105045
0.0105045
0.0105045
0.0105045
0.0105045
0.0105045
0.0105045
0.0105045
0.0105045
0.0105045
0.0105045
0.0105045
0.0105045
0.0105045
0.0105045
0.0105045
0.0105045
0.0105045
0.0105045
0.0105045
0.0105045
0.0105045
0.0105045
0.0105045
0.0105045
0.0105045
0.0105045
0.0105045
0.0105045
0.0105045
0.0105045
0.0105045
0.0105045
0.0105045
0.0105045
0.0105045
0.0105045
0.0105045
0.0105045
0.0105045
0.0105045
0.0105045
0.0105045
0.0105045
0.0105045
0.0105045
0.0105045
0.0105045
0.0105045
0.0105045
0.0105045
0.0105045
0.0105045
0.0105045
0.0105045
0.0105045
0.0105045
0.0105045
0.0105045
0.0105045
0.0105045
0.0105045
0.0105045
0.0105045
0.0105045
0.0105045
0.0105045
0.0105045
0.0105045
0.0105045
0.0105045
0.0105045
0.0105045
0.0105045
0.0105045
0.0105045
0.0105045
0.0105045
0.0105045
0.0105045
0.0105045
0.0105045
0.0105045
0.0105045
0.0105045
0.0105045
0.0105045
0.0105045
0.0105045
0.0105045
0.0105045
0.0105045
0.0105045
0.0105045
0.0105045
0.0105045
0.0105045
0.0105045
0.0105045
0.0105045
0.0105045
0.0105045
0.0105045
0.0105045
0.0105045
0.0105045
0.0105045
0.0105045
0.0105045
0.0105045
0.0105045
0.0105045
0.0105045
0.0105045
0.0105045
0.0105045
0.0105045
0.0105045
0.0105045
0.0105045
0.0105045
0.0105045
0.0105045
0.0105045
0.0105045
0.0105045
0.0105045
0.0105045
0.0105045
0.0105045
0.0105045
0.0105045
0.0105045
0.0105045
0.0103021
0.0103021
0.0103021
0.0103021
0.0103021
0.0103021
0.0103021
0.0103021
0.0103021
0.0103021
0.0103021
0.0103021
0.0103021
0.0103021
0.0103021
0.0103021
0.0103021
0.0103021
0.0103021
0.0103021
0.0103021
0.0103021
0.0103021
0.0103021
0.0103021
0.0103021
0.0103021
0.0103021
0.0103021
0.0103021
0.0103021
0.0103021
0.0103021
0.0103021
0.0103021
0.0103021
0.0103021
0.0103021
0.0103021
0.0103021
0.0103021
0.0103021
0.0103021
0.0103021
0.0103021
0.0103021
0.0103021
0.0103021
0.0103021
0.0103021
0.0103021
0.0103021
0.0103021
0.0103021
0.0103021
0.0103021
0.0103021
0.0103021
0.0103021
0.0103021
0.0103021
0.0103021
0.0103021
0.0103021
0.0103021
0.0103021
0.0103021
0.0103021
0.0103021
0.0103021
0.0103021
0.0103021
0.0103021
0.0103021
0.0103021
0.0103021
0.0103021
0.0103021
0.0103021
0.0103021
0.0103021
0.0103021
0.0103021
0.0103021
0.0103021
0.0103021
0.0103021
0.0103021
0.0103021
0.0103021
0.0103021
0.0103021
0.0103021
0.0103021
0.0103021
0.0103021
0.0103021
0.0103021
0.0103021
0.0103021
0.0103021
0.0103021
0.0103021
0.0103021
0.0103021
0.0103021
0.0103021
0.0103021
0.0103021
0.0103021
0.0103021
0.0103021
0.0103021
0.0103021
0.0103021
0.0103021
0.0103021
0.0103021
0.0103021
0.0103021
0.0103021
0.0103021
0.0103021
0.0103021
0.0103021
0.0103021
0.0103021
0.0103021
0.0103021
0.0103021
0.0103021
0.0103021
0.0103021
0.0103021
0.0103021
0.0103021
0.0103021
0.0103021
0.0103021
0.0103021
0.0103021
0.0103021
0.0103021
0.0103021
0.0103021
0.0103021
0.0103021
0.0103021
0.0103021
0.0103021
0.0103021
0.0103021
0.0103021
0.0103021
0.0103021
0.0103021
0.0103021
0.0103021
0.0103021
0.0103021
0.0103021
0.0103021
0.0103021
0.0103021
0.0103021
0.0103021
0.0103021
0.0103021
0.0103021
0.0103021
0.0103021
0.0103021
0.0103021
0.0103021
0.0103021
0.0103021
0.0103021
0.0103021
0.0103021
0.0103021
0.0103021
0.0103021
0.0103021
0.0103021
0.0103021
0.0103021
0.0103021
0.0103021
0.0103021
0.0103021
0.0103021
0.0103021
0.0103021
0.0103021
0.0103021
0.0103021
0.0103021
0.0103021
0.0103021
0.0103021
0.010101
0.010101
0.010101
0.010101
0.010101
0.010101
0.010101
0.010101
0.010101
0.010101
0.010101
0.010101
0.010101
0.010101
0.010101
0.010101
0.010101
0.010101
0.010101
0.010101
0.010101
0.010101
0.010101
0.010101
0.010101
0.010101
0.010101
0.010101
0.010101
0.010101
0.010101
0.010101
0.010101
0.010101
0.010101
0.010101
0.010101
0.010101
0.010101
0.010101
0.010101
0.010101
0.010101
0.010101
0.010101
0.010101
0.010101
0.010101
0.010101
0.010101
0.010101
0.010101
0.010101
0.010101
0.010101
0.010101
0.010101
0.010101
0.010101
0.010101
0.010101
0.010101
0.010101
0.010101
0.010101
0.010101
0.010101
0.010101
0.010101
0.010101
0.010101
0.010101
0.010101
0.010101
0.010101
0.010101
0.010101
0.010101
0.010101
0.010101
0.010101
0.010101
0.010101
0.010101
0.010101
0.010101
0.010101
0.010101
0.010101
0.010101
0.010101
0.010101
0.010101
0.010101
0.010101
0.010101
0.010101
0.010101
0.010101
0.010101
0.010101
0.010101
0.010101
0.010101
0.010101
0.010101
0.010101
0.010101
0.010101
0.010101
0.010101
0.010101
0.010101
0.010101
0.010101
0.010101
0.010101
0.010101
0.010101
0.010101
0.010101
0.010101
0.010101
0.010101
0.010101
0.010101
0.010101
0.010101
0.010101
0.010101
0.010101
0.010101
0.010101
0.010101
0.010101
0.010101
0.010101
0.010101
0.010101
0.010101
0.010101
0.010101
0.010101
0.010101
0.010101
0.010101
0.010101
0.010101
0.010101
0.010101
0.010101
0.010101
0.010101
0.010101
0.010101
0.010101
0.010101
0.010101
0.010101
0.010101
0.010101
0.010101
0.010101
0.010101
0.010101
0.010101
0.010101
0.010101
0.010101
0.010101
0.010101
0.010101
0.010101
0.010101
0.010101
0.010101
0.010101
0.010101
0.010101
0.010101
0.010101
0.010101
0.010101
0.010101
0.010101
0.010101
0.010101
0.010101
0.010101
0.010101
0.010101
0.010101
0.010101
0.010101
0.010101
0.010101
0.010101
0.010101
0.010101
0.010101
0.00990124
0.00990124
0.00990124
0.00990124
0.00990124
0.00990124
0.00990124
0.00990124
0.00990124
0.00990124
0.00990124
0.00990124
0.00990124
0.00990124
0.00990124
0.00990124
0.00990124
0.00990124
0.00990124
0.00990124
0.00990124
0.00990124
0.00990124
0.00990124
0.00990124
0.00990124
0.00990124
0.00990124
0.00990124
0.00990124
0.00990124
0.00990124
0.00990124
0.00990124
0.00990124
0.00990124
0.00990124
0.00990124
0.00990124
0.00990124
0.00990124
0.00990124
0.00990124
0.00990124
0.00990124
0.00990124
0.00990124
0.00990124
0.00990124
0.00990124
0.00990124
0.00990124
0.00990124
0.00990124
0.00990124
0.00990124
0.00990124
0.00990124
0.00990124
0.00990124
0.00990124
0.00990124
0.00990124
0.00990124
0.00990124
0.00990124
0.00990124
0.00990124
0.00990124
0.00990124
0.00990124
0.00990124
0.00990124
0.00990124
0.00990124
0.00990124
0.00990124
0.00990124
0.00990124
0.00990124
0.00990124
0.00990124
0.00990124
0.00990124
0.00990124
0.00990124
0.00990124
0.00990124
0.00990124
0.00990124
0.00990124
0.00990124
0.00990124
0.00990124
0.00990124
0.00990124
0.00990124
0.00990124
0.00990124
0.00990124
0.00990124
0.00990124
0.00990124
0.00990124
0.00990124
0.00990124
0.00990124
0.00990124
0.00990124
0.00990124
0.00990124
0.00990124
0.00990124
0.00990124
0.00990124
0.00990124
0.00990124
0.00990124
0.00990124
0.00990124
0.00990124
0.00990124
0.00990124
0.00990124
0.00990124
0.00990124
0.00990124
0.00990124
0.00990124
0.00990124
0.00990124
0.00990124
0.00990124
0.00990124
0.00990124
0.00990124
0.00990124
0.00990124
0.00990124
0.00990124
0.00990124
0.00990124
0.00990124
0.00990124
0.00990124
0.00990124
0.00990124
0.00990124
0.00990124
0.00990124
0.00990124
0.00990124
0.00990124
0.00990124
0.00990124
0.00990124
0.00990124
0.00990124
0.00990124
0.00990124
0.00990124
0.00990124
0.00990124
0.00990124
0.00990124
0.00990124
0.00990124
0.00990124
0.00990124
0.00990124
0.00990124
0.00990124
0.00990124
0.00990124
0.00990124
0.00990124
0.00990124
0.00990124
0.00990124
0.00990124
0.00990124
0.00990124
0.00990124
0.00990124
0.00990124
0.00990124
0.00990124
0.00990124
0.00990124
0.00990124
0.00990124
0.00990124
0.00990124
0.00990124
0.00990124
0.00990124
0.00990124
0.00990124
0.00990124
0.00990124
0.00970287
0.00970287
0.00970287
0.00970287
0.00970287
0.00970287
0.00970287
0.00970287
0.00970287
0.00970287
0.00970287
0.00970287
0.00970287
0.00970287
0.00970287
0.00970287
0.00970287
0.00970287
0.00970287
0.00970287
0.00970287
0.00970287
0.00970287
0.00970287
0.00970287
0.00970287
0.00970287
0.00970287
0.00970287
0.00970287
0.00970287
0.00970287
0.00970287
0.00970287
0.00970287
0.00970287
0.00970287
0.00970287
0.00970287
0.00970287
0.00970287
0.00970287
0.00970287
0.00970287
0.00970287
0.00970287
0.00970287
0.00970287
0.00970287
0.00970287
0.00970287
0.00970287
0.00970287
0.00970287
0.00970287
0.00970287
0.00970287
0.00970287
0.00970287
0.00970287
0.00970287
0.00970287
0.00970287
0.00970287
0.00970287
0.00970287
0.00970287
0.00970287
0.00970287
0.00970287
0.00970287
0.00970287
0.00970287
0.00970287
0.00970287
0.00970287
0.00970287
0.00970287
0.00970287
0.00970287
0.00970287
0.00970287
0.00970287
0.00970287
0.00970287
0.00970287
0.00970287
0.00970287
0.00970287
0.00970287
0.00970287
0.00970287
0.00970287
0.00970287
0.00970287
0.00970287
0.00970287
0.00970287
0.00970287
0.00970287
0.00970287
0.00970287
0.00970287
0.00970287
0.00970287
0.00970287
0.00970287
0.00970287
0.00970287
0.00970287
0.00970287
0.00970287
0.00970287
0.00970287
0.00970287
0.00970287
0.00970287
0.00970287
0.00970287
0.00970287
0.00970287
0.00970287
0.00970287
0.00970287
0.00970287
0.00970287
0.00970287
0.00970287
0.00970287
0.00970287
0.00970287
0.00970287
0.00970287
0.00970287
0.00970287
0.00970287
0.00970287
0.00970287
0.00970287
0.00970287
0.00970287
0.00970287
0.00970287
0.00970287
0.00970287
0.00970287
0.00970287
0.00970287
0.00970287
0.00970287
0.00970287
0.00970287
0.00970287
0.00970287
0.00970287
0.00970287
0.00970287
0.00970287
0.00970287
0.00970287
0.00970287
0.00970287
0.00970287
0.00970287
0.00970287
0.00970287
0.00970287
0.00970287
0.00970287
0.00970287
0.00970287
0.00970287
0.00970287
0.00970287
0.00970287
0.00970287
0.00970287
0.00970287
0.00970287
0.00970287
0.00970287
0.00970287
0.00970287
0.00970287
0.00970287
0.00970287
0.00970287
0.00970287
0.00970287
0.00970287
0.00970287
0.00970287
0.00970287
0.00970287
0.00970287
0.00970287
0.00970287
0.00970287
0.00970287
0.00970287
0.00950589
0.00950589
0.00950589
0.00950589
0.00950589
0.00950589
0.00950589
0.00950589
0.00950589
0.00950589
0.00950589
0.00950589
0.00950589
0.00950589
0.00950589
0.00950589
0.00950589
0.00950589
0.00950589
0.00950589
0.00950589
0.00950589
0.00950589
0.00950589
0.00950589
0.00950589
0.00950589
0.00950589
0.00950589
0.00950589
0.00950589
0.00950589
0.00950589
0.00950589
0.00950589
0.00950589
0.00950589
0.00950589
0.00950589
0.00950589
0.00950589
0.00950589
0.00950589
0.00950589
0.00950589
0.00950589
0.00950589
0.00950589
0.00950589
0.00950589
0.00950589
0.00950589
0.00950589
0.00950589
0.00950589
0.00950589
0.00950589
0.00950589
0.00950589
0.00950589
0.00950589
0.00950589
0.00950589
0.00950589
0.00950589
0.00950589
0.00950589
0.00950589
0.00950589
0.00950589
0.00950589
0.00950589
0.00950589
0.00950589
0.00950589
0.00950589
0.00950589
0.00950589
0.00950589
0.00950589
0.00950589
0.00950589
0.00950589
0.00950589
0.00950589
0.00950589
0.00950589
0.00950589
0.00950589
0.00950589
0.00950589
0.00950589
0.00950589
0.00950589
0.00950589
0.00950589
0.00950589
0.00950589
0.00950589
0.00950589
0.00950589
0.00950589
0.00950589
0.00950589
0.00950589
0.00950589
0.00950589
0.00950589
0.00950589
0.00950589
0.00950589
0.00950589
0.00950589
0.00950589
0.00950589
0.00950589
0.00950589
0.00950589
0.00950589
0.00950589
0.00950589
0.00950589
0.00950589
0.00950589
0.00950589
0.00950589
0.00950589
0.00950589
0.00950589
0.00950589
0.00950589
0.00950589
0.00950589
0.00950589
0.00950589
0.00950589
0.00950589
0.00950589
0.00950589
0.00950589
0.00950589
0.00950589
0.00950589
0.00950589
0.00950589
0.00950589
0.00950589
0.00950589
0.00950589
0.00950589
0.00950589
0.00950589
0.00950589
0.00950589
0.00950589
0.00950589
0.00950589
0.00950589
0.00950589
0.00950589
0.00950589
0.00950589
0.00950589
0.00950589
0.00950589
0.00950589
0.00950589
0.00950589
0.00950589
0.00950589
0.00950589
0.00950589
0.00950589
0.00950589
0.00950589
0.00950589
0.00950589
0.00950589
0.00950589
0.00950589
0.00950589
0.00950589
0.00950589
0.00950589
0.00950589
0.00950589
0.00950589
0.00950589
0.00950589
0.00950589
0.00950589
0.00950589
0.00950589
0.00950589
0.00950589
0.00950589
0.00950589
0.00950589
0.00950589
0.00950589
0.00931032
0.00931032
0.00931032
0.00931032
0.00931032
0.00931032
0.00931032
0.00931032
0.00931032
0.00931032
0.00931032
0.00931032
0.00931032
0.00931032
0.00931032
0.00931032
0.00931032
0.00931032
0.00931032
0.00931032
0.00931032
0.00931032
0.00931032
0.00931032
0.00931032
0.00931032
0.00931032
0.00931032
0.00931032
0.00931032
0.00931032
0.00931032
0.00931032
0.00931032
0.00931032
0.00931032
0.00931032
0.00931032
0.00931032
0.00931032
0.00931032
0.00931032
0.00931032
0.00931032
0.00931032
0.00931032
0.00931032
0.00931032
0.00931032
0.00931032
0.00931032
0.00931032
0.00931032
0.00931032
0.00931032
0.00931032
0.00931032
0.00931032
0.00931032
0.00931032
0.00931032
0.00931032
0.00931032
0.00931032
0.00931032
0.00931032
0.00931032
0.00931032
0.00931032
0.00931032
0.00931032
0.00931032
0.00931032
0.00931032
0.00931032
0.00931032
0.00931032
0.00931032
0.00931032
0.00931032
0.00931032
0.00931032
0.00931032
0.00931032
0.00931032
0.00931032
0.00931032
0.00931032
0.00931032
0.00931032
0.00931032
0.00931032
0.00931032
0.00931032
0.00931032
0.00931032
0.00931032
0.00931032
0.00931032
0.00931032
0.00931032
0.00931032
0.00931032
0.00931032
0.00931032
0.00931032
0.00931032
0.00931032
0.00931032
0.00931032
0.00931032
0.00931032
0.00931032
0.00931032
0.00931032
0.00931032
0.00931032
0.00931032
0.00931032
0.00931032
0.00931032
0.00931032
0.00931032
0.00931032
0.00931032
0.00931032
0.00931032
0.00931032
0.00931032
0.00931032
0.00931032
0.00931032
0.00931032
0.00931032
0.00931032
0.00931032
0.00931032
0.00931032
0.00931032
0.00931032
0.00931032
0.00931032
0.00931032
0.00931032
0.00931032
0.00931032
0.00931032
0.00931032
0.00931032
0.00931032
0.00931032
0.00931032
0.00931032
0.00931032
0.00931032
0.00931032
0.00931032
0.00931032
0.00931032
0.00931032
0.00931032
0.00931032
0.00931032
0.00931032
0.00931032
0.00931032
0.00931032
0.00931032
0.00931032
0.00931032
0.00931032
0.00931032
0.00931032
0.00931032
0.00931032
0.00931032
0.00931032
0.00931032
0.00931032
0.00931032
0.00931032
0.00931032
0.00931032
0.00931032
0.00931032
0.00931032
0.00931032
0.00931032
0.00931032
0.00931032
0.00931032
0.00931032
0.00931032
0.00931032
0.00931032
0.00931032
0.00931032
0.00931032
0.00931032
0.00931032
0.00911619
0.00911619
0.00911619
0.00911619
0.00911619
0.00911619
0.00911619
0.00911619
0.00911619
0.00911619
0.00911619
0.00911619
0.00911619
0.00911619
0.00911619
0.00911619
0.00911619
0.00911619
0.00911619
0.00911619
0.00911619
0.00911619
0.00911619
0.00911619
0.00911619
0.00911619
0.00911619
0.00911619
0.00911619
0.00911619
0.00911619
0.00911619
0.00911619
0.00911619
0.00911619
0.00911619
0.00911619
0.00911619
0.00911619
0.00911619
0.00911619
0.00911619
0.00911619
0.00911619
0.00911619
0.00911619
0.00911619
0.00911619