/*---------------------------------------------------------------------------*\
| =========                 |                                                 |
| \\      /  F ield         | OpenFOAM: The Open Source CFD Toolbox           |
|  \\    /   O peration     | Version:  1.4                                   |
|   \\  /    A nd           | Web:      http://www.openfoam.org               |
|    \\/     M anipulation  |                                                 |
\*---------------------------------------------------------------------------*/

FoamFile
{
    version         2.0;
    format          ascii;

    root            "";
    case            "";
    instance        "";
    local           "";

    class           dictionary;
    object          thermophysicalPro perties;
}

// * * * * * * * * * * * * * * * * * * * * * * * * * * * * * * * * * * * * * //

//thermoType      hThermo<pureMixture<constTransport<specieThermo<hConstThermo<perfectGas>>>>>;

T0       T0 [0 0  0 1 0 0 0] 273.15;

mixture  air 1 28.9 1004 0 1.8e-05 0.7;
waterVapour waterVapour 1 18 1885 0 1.2e-5 0.162946065;
pRef     pRef [1 -1 -2 0 0 0 0] 100000;

// Constants for the integrated version of the Clausius-Clapyron relation
pClausiusClapyron 6.1094e-3;
latentHeatRef Lv0 [0 2 -2 0 0] 2.5e6;
specificHeatLiquidWater Cpl [0 2 -2 -1 0] 4186;

// ************************************************************************* //
