/*--------------------------------*- C++ -*----------------------------------*\
| =========                 |                                                 |
| \\      /  F ield         | OpenFOAM: The Open Source CFD Toolbox           |
|  \\    /   O peration     | Version:  dev                                   |
|   \\  /    A nd           | Web:      www.OpenFOAM.org                      |
|    \\/     M anipulation  |                                                 |
\*---------------------------------------------------------------------------*/
FoamFile
{
    version     2.0;
    format      ascii;
    class       dictionary;
    location    "system";
    object      tracerDict;
}
// * * * * * * * * * * * * * * * * * * * * * * * * * * * * * * * * * * * * * //

type gaussian;
width 0.1;
centre (0.25 0.5 0.05);
maxTracer 1;

//type            schaerRadial;
//maxMagnitude    1;
//centre          (0 0 500);
//halfWidth       (300 0 300);

//type        schaer1D;
//centre      (1 0 0);
//halfWidth   (2 1 1);

//type		arakawaKonorRadiation;

//type		schaerRadial3D;
//centre      (-0.5 -0.5 0.5);
//halfWidth   (0.5 0.5 0.5);

//type		schaer1D;
//centre      (1 0 0);
//halfWidth   (2 1 1);

//type		geodesicGaussians;

//type    polynomial;
//a_const   1;
//a_x       1;
//a_y       1;
//a_z       1;
//a_xx   1;
//a_xy   1;
//a_xz   1;
//a_yy   1;
//a_yz   1;
//a_zz   1;
//a_xxx   1;
//a_xxy   1;
//a_xxz   1;
//a_xyy   1;
//a_xyz   1;
//a_xzz   1;
//a_yyy   1;
//a_yyz   1;
//a_yzz   1;
//a_zzz   1;
//polyMax   0.4;
//polyMin   0;

