/*---------------------------------------------------------------------------*\
| =========                 |                                                 |
| \\      /  F ield         | OpenFOAM: The Open Source CFD Toolbox           |
|  \\    /   O peration     | Version:  2.3.0                                 |
|   \\  /    A nd           | Web:      http://www.openfoam.org               |
|    \\/     M anipulation  |                                                 |
\*---------------------------------------------------------------------------*/

FoamFile
{
    version     2.0;
    format      ascii;
    class       dictionary;
    location    "system";
    object      fvSchemes;
}

// * * * * * * * * * * * * * * * * * * * * * * * * * * * * * * * * * * * * * //

ddtSchemes
{
    default         none;
}

divSchemes
{
    default         none;
    div(phi,T)      Gauss midPoint;
}

interpolationSchemes
{
    default         none;
}

gradSchemes
{
    default         none;
}

laplacianSchemes
{
    default         none;
}

fluxRequired
{
    default         no;
}

// ************************************************************************* //

