FoamFile {
    version     2.0;
    format      ascii;
    class       dictionary;
    location    "constant";
    object      velocityFieldDict;
}

maxVelocity         10;
zeroVelocityHeight  4000;
maxVelocityHeight   5000;
