FoamFile {
    version     2.0;
    format      ascii;
    class       dictionary;
    object      blockMeshDict;
}

vertices (
    (-1 -1 0)  // 0
    (1  -1 0)  // 1
    (1  1 0)  // 2
    (-1 1 0)  // 3
    (-1 -1 2) // 4
    (1  -1 2) // 5
    (1  1 2) // 6
    (-1 1 2) // 7
);

blocks (
	hex (0 1 2 3 4 5 6 7)
	    (50 50 50)
	    simpleGrading (1 1 1)
);

boundary (
	inlet {
		type patch;
		faces (
			(0 3 7 4)
		);
	}

	outlet {
		type patch;
		faces (
			(1 2 6 5)
		);
	}

	ground {
		type wall;
		faces (
			(0 1 2 3)
		);	
	}

	top {
		type wall;
		faces (
			(4 5 6 7)
		);
	}

	front {
		type wall;
		faces (
			(0 1 5 4)
		);
	}

	back {
		type wall;
		faces (
			(3 2 6 7)
		);
	}
);
