FoamFile {
        version         1.4;
        format          ascii;

        root            "";
        case            "";
        instance        "constant";
        local           "";

        class           dictionary;
        object          gmtDict;
}

projection "X5i/1.6i";
projection2D XZ;
separateLegend false;
plotBoundaryDots false;
//plotZeroValuePolys false;

FieldsToPlot (
//        [T_diff rawValues -0.2 0.2 0.05 "$GMTU/colours/red_white_blue.cpt"]
        [Tf_diff rawValues -0.7 0.7 0.05 "$GMTU/colours/red_white_blue.cpt"]
        [none mesh "gray"]
);

region "-400e3/400e3/0/30e3";
boundaryMarks "100e3/10e3WSen";
