// dummy file to placate paraView
FoamFile {
    version     2.0;
    format      ascii;
    class       dictionary;
    location    "system";
    object      fvSolution;
}

solvers {
}

SIMPLE {
    nNonOrthogonalCorrectors 1;
}
