/*---------------------------------------------------------------------------*\
| =========                 |                                                 |
| \\      /  F ield         | OpenFOAM: The Open Source CFD Toolbox           |
|  \\    /   O peration     | Version:  1.4                                   |
|   \\  /    A nd           | Web:      http://www.openfoam.org               |
|    \\/     M anipulation  |                                                 |
\*---------------------------------------------------------------------------*/

FoamFile
{
    version         2.0;
    format          ascii;

    root            "";
    case            "";
    instance        "";
    local           "";

    class           dictionary;
    object          fvSchemes;
}

// * * * * * * * * * * * * * * * * * * * * * * * * * * * * * * * * * * * * * //

ddtSchemes
{
    default Euler;
}
offCentre 0.5;

gradSchemes
{
    default         none;
    linearUpwind     Gauss linear;
}

divSchemes
{
    default none;
    div(U,u)   Gauss linearUpwind linearUpwind;
}

laplacianSchemes
{
    default         Gauss midPoint uncorrected;
}

interpolationSchemes
{
    default        midPoint;
}

snGradSchemes
{
    default         none;
    snGrad(p)   uncorrected;
}

fluxRequired
{
    default         no;
    p;
}


// ************************************************************************* //
