FoamFile
{
    version         1.4;
    format          ascii;

    root            "";
    case            "";
    instance        "constant";
    local           "";

    class           dictionary;
    object          gmtDict;
}

// How to plot
// Compulsory inputs
projection "X18c/8c";
projection2D XZ;
//patch frontAndBack;

FieldsToPlot
3
(
    [Tdiff filledContours -0.21 0.21 0.02 "$GMTU/colours/red_white_blue.cpt"]
    [T contours 0.1 1 0.1 "black"]
    [T contours -1 -0.1 0.1 "black,5_5:0"]
);

region "-80e3/80e3/0/14000";
annotate "minMax -30e3 -100";

