FoamFile
{
    version         2.2;
    format          ascii;

    root            "";
    case            "";
    instance        "constant";
    local           "";

    class           dictionary;
    object          gmtDict;
}

// How to plot
// Compulsory inputs
projection "X18c/3c";
projection2D XZ;

FieldsToPlot
(
    [none mesh "black"]
);

region "-30e3/30e3/0/10e3";
plotBoundaryDots false;
