/*--------------------------------*- C++ -*----------------------------------*\
| =========                 |                                                 |
| \\      /  F ield         | OpenFOAM: The Open Source CFD Toolbox           |
|  \\    /   O peration     | Version:  1.5                                   |
|   \\  /    A nd           | Web:      http://www.OpenFOAM.org               |
|    \\/     M anipulation  |                                                 |
\*---------------------------------------------------------------------------*/
FoamFile
{
    version     2.0;
    format      ascii;
    class       dictionary;
    object      fvSolution;
}
// * * * * * * * * * * * * * * * * * * * * * * * * * * * * * * * * * * * * * //

solvers
{
    "h|p"
    {
        solver          PCG;
        preconditioner  DIC;
        tolerance       1e-8;
        relTol          0.01;
    }

    "hFinal|pFinal"
    {
        $p;
        relTol          0;
    }

    "U|UFinal|hU|hUFinal"
    {
        solver          smoothSolver;
        smoother        symGaussSeidel;
        tolerance       1e-05;
        relTol          0;
    }
    "streamFunction|velPot"
    {
        solver         PCG;
        preconditioner DIC;
        tolerance      1e-7;
        relTol         0;
    }
}

"iterations|PISO|PIMPLE"
{
    nOuterCorrectors 2;
    nCorrectors     1;
    nNonOrthogonalCorrectors 0;
    pRefCell        0;
    pRefValue       0;
    momentumPredictor false;
}

initialisation
{
    maxIters 20;
}

// ************************************************************************* //
