FoamFile
{
    version         1.4;
    format          ascii;

    root            "";
    case            "";
    instance        "constant";
    local           "";

    class           dictionary;
    object          gmtDict;
}

// How to plot
// Compulsory inputs
projection "X18c/18c";
projection2D XZ;

FieldsToPlot
(
    [ExnerDiff filledContours 0 0 0 "$GMTU/colours/red_white_blue.cpt"]
    [gradpDiff vectors 5e4 17 "black"]
);

annotate "minMax -1e3 -100";
