FoamFile
{
    version         1.4;
    format          ascii;

    root            "";
    case            "";
    instance        "constant";
    local           "";

    class           dictionary;
    object          gmtDict;
}

// How to plot
// Compulsory inputs
projection "X18c/18c";
projection2D XZ;

FieldsToPlot
(
    [rhoDiff filledContours -2e-9 2e-9 2e-10 "$GMTU/colours/red_white_blue.cpt"]
);

annotate "minMax -1e3 -100";
