FoamFile
{
    version         2.3;
    format          ascii;

    root            "";
    case            "";
    instance        "constant";
    local           "";

    class           dictionary;
    object          gmtDict;
}

// How to plot
// Compulsory inputs
projection "X18c/18c";
projection2D XZ;

FieldsToPlot
(
    [ExnerDiff filledContours -5.25e-5 5.25e-5 5e-6 "$GMTU/colours/red_white_blue.cpt"]
    [Udiff vectors 1e17 1 "black"]
);

//separateLegend true;
//region "-6000/6000/3000/15000";
//annotate "minMax 0.01 -0.005";

