FoamFile
{
    version         2.3;
    format          ascii;

    root            "";
    case            "";
    instance        "constant";
    local           "";

    class           dictionary;
    object          gmtDict;
}

// How to plot
// Compulsory inputs
projection "X18c/18c";
projection2D XZ;

FieldsToPlot
1
(
    [uTmp vectors 2000 13 "black"]
);

//separateLegend true;
//region "-6000/6000/3000/15000";
//annotate "minMax 0.01 -0.005";

