FoamFile
{
    version         1.4;
    format          ascii;

    root            "";
    case            "";
    instance        "constant";
    local           "";

    class           dictionary;
    object          gmtDict;
}

// How to plot
// Compulsory inputs
projection "X18c/18c";
projection2D XZ;

FieldsToPlot
(
    [varDiff filledContours -1e-9 1e-9 1e-10 "$GMTU/colours/red_white_blue.cpt"]
    [UfDiff vectors 0 1 "black"]
);

annotate "minMax -1e3 -100";
plotBoundaryDots false;

