FoamFile
{
    version     2.0;
    format      ascii;
    class       dictionary;
    location    "constant";
    object      advectionDict;
}

velocityScale velocityScale [0 1 -1 0 0] 0.001;
sourceTemperatureScale sourceTemperatureScale [0 0 1 1 0] 1000000;
angularVelocity angularVelocity [0 0 -1 0 0] -0.005236;
