FoamFile {
    version     2.0;
    format      ascii;
    class       dictionary;
    location    "constant";
    object	    qFieldDict2;
}

type		schaerDamped;
maxMagnitude    1.;
rhoAir          0.;
profileType     "rvs";
centre          (0 0 500);
ground          (0 0 -1000);
halfWidth       (300 0 300);
