FoamFile {
    version     2.0;
    format      ascii;
    class       dictionary;
    location    "constant";
    object	    qFieldDict;
}

type		schaerDamped;
maxMagnitude    0.04;
rhoAir          1.;
profileType     "r";
centre          (0 0 500);
halfWidth       (300 0 300);
