FoamFile {
    version     2.0;
    format      ascii;
    class       dictionary;
    location    "constant";
    object	    qFieldDict;
}

type		schaerDamped;
maxMagnitude    0.05;
rhoAir          1.;
profileType     "rl";
centre          (0 0 500);
ground          (0 0 -1000);
halfWidth       (300 0 300);
