FoamFile {
    version     2.0;
    format      ascii;
    class       dictionary;
    location    "constant";
    object	    rhoDict;
}

type		schaerDamped;
maxMagnitude    0.05;
rhoAir          1;
profileType     "default";
centre          (0 0 500);
halfWidth       (300 0 300);
