/*--------------------------------*- C++ -*----------------------------------*\
  =========                 |
  \\      /  F ield         | OpenFOAM: The Open Source CFD Toolbox
   \\    /   O peration     | Website:  https://openfoam.org
    \\  /    A nd           | Version:  dev
     \\/     M anipulation  |
\*---------------------------------------------------------------------------*/
FoamFile
{
    version     2.0;
    format      ascii;
    class       dictionary;
    location    "system";
    object      fvSchemes;
}
// * * * * * * * * * * * * * * * * * * * * * * * * * * * * * * * * * * * * * //

ddtSchemes
{
    butcherTableau 4 4 ((0 0 0 0) (0.5 0 0 0) (0 0.5 0 0) (0 0 1 0))
                   4 (0.666666666 0.3333333333 0.333333333333 0.666666666)
                   4 (0 0.5 0.5 1);
}

gradSchemes
{
    default         Gauss linear;
}

divSchemes
{
    default         Gauss vanLeer;
}

laplacianSchemes
{
    default         none;
}

interpolationSchemes
{
    default         none;
}

snGradSchemes
{
    default         uncorrected;
}


// ************************************************************************* //
