FoamFile {
    version     2.0;
    format      ascii;
    class       dictionary;
    object      blockMeshDict;
}

vertices (
    (-3 -1.5 -1)
    (1  -1.5 -1)
    (1  -1.5  1)
    (-3 -1.5  1)
    (-3  1.5 -1)
    (1   1.5 -1)
    (1   1.5  1)
    (-3  1.5  1)
);

blocks (
	hex (0 1 2 3 4 5 6 7)
	    (4 1 3)
	    simpleGrading (1 1 1)
);

boundary (
	inlet {
		type inlet;
		faces (
			(0 3 7 4)
		);
	}

	outlet {
		type outlet;
		faces (
			(1 2 6 5)
		);
	}

	ground {
		type wall;
		faces (
			(0 1 2 3)
		);	
	}

	top {
		type wall;
		faces (
			(4 5 6 7)
		);
	}

	frontAndBack {
		type empty;
		faces (
			(0 1 5 4)
			(3 2 6 7)
		);
	}
);
