FoamFile {
    version     2.0;
    format      ascii;
    class       dictionary;
    location    "system";
    object      fvSchemes;
}

#include "commonFvSchemes"

divSchemes {
    default         none;
    div(phi,T)      Gauss cubicUpwindCPCFit false;
//    div(phi,T)      Gauss upwind;
}
