FoamFile {
    version     2.0;
    format      ascii;
    class       dictionary;
    location    "system";
    object      fvSchemes;
}

#include "commonFvSchemes"

divSchemes {
    default         none;
    div(phi,T)      Gauss cubicUpwindCPCFit false;
    div(phi,T_0)    Gauss cubicUpwindCPCFit false;
//    div(phi,T)      Gauss linearUpwind grad(T);
//    div(phi,T_0)    Gauss linearUpwind grad(T_0);
}
