FoamFile {
    version     2.0;
    format      ascii;
    class       dictionary;
    location    "constant";
    object      add2dMountainDict;
}

mountainType ScharCos;
coordSys BTF;

zt 25e3;
a 25e3;
hm 3000;
lambda 8e3;
