FoamFile {
    version     2.0;
    format      ascii;
    class       dictionary;
    location    "constant";
    object      velocityFieldDict;
}
    
velocityProfileType	BtfVelocityProfile;
maxVelocity	        10;

mountainType		SchaerExpMountain;
domainHeight		5e3;
mountainHalfWidth	5e3;
mountainPeakHeight	1000;
mountainWavelength	4e3;
