FoamFile {
    version     2.0;
    format      ascii;
    class       dictionary;
    object      blockMeshDict;
}

vertices (
    (-15 0 0)  // 0
    (0 0 0)  // 1
    (0 1 0)  // 2
    (-15 1 0)  // 3
    (-15 0 10) // 4
    (0 0 10) // 5
    (0 1 10) // 6
    (-15 1 10) // 7
);

blocks (
	hex (0 1 2 3 4 5 6 7)
	    (15 1 10)
	    simpleGrading (1 1 1)
);

boundary (
	left {
		type cyclic;
        neighbourPatch right;
		faces (
			(0 3 7 4)
		);
	}

	right {
		type cyclic;
        neighbourPatch left;
		faces (
			(1 2 6 5)
		);
	}

	ground {
		type wall;
		faces (
			(0 1 2 3)
		);	
	}

	top {
		type wall;
		faces (
			(4 5 6 7)
		);
	}

	frontAndBack {
		type empty;
		faces (
			(0 1 5 4)
			(3 2 6 7)
		);
	}
);
