FoamFile {
    version     2.0;
    format      ascii;
    class       dictionary;
    location    "system";
    object      controlDict;
}

startFrom       startTime;
startTime       0;
stopAt          endTime;
endTime         1;
deltaT          1;
writeControl    runTime;
writeInterval   1;
purgeWrite      0;
writeFormat     ascii;
writePrecision  12;
writeCompression uncompressed;
timeFormat      general;
timePrecision   6;
libs           ("libOpenFOAM.so" "libExnerTheta.so" "libspecie.so" "libfiniteVolumeAtmos.so");
