FoamFile {
    version     2.0;
    format      ascii;
    class       dictionary;
    location    "constant";
    object	setScalarOverOrographyDict;
}

type		schaerRadial;
centre      (-10.5 0 3);
halfWidth   (0.5 1 1);
