/*--------------------------------*- C++ -*----------------------------------*\
| =========                 |                                                 |
| \\      /  F ield         | OpenFOAM: The Open Source CFD Toolbox           |
|  \\    /   O peration     | Version:  3.0.1                                 |
|   \\  /    A nd           | Web:      www.OpenFOAM.org                      |
|    \\/     M anipulation  |                                                 |
\*---------------------------------------------------------------------------*/
FoamFile
{
    version     2.0;
    format      binary;
    class       polyBoundaryMesh;
    location    "constant/polyMesh";
    object      boundary;
}
// * * * * * * * * * * * * * * * * * * * * * * * * * * * * * * * * * * * * * //

5
(
    ground
    {
        type            patch;
        nFaces          60;
        startFace       7080;
    }
    top
    {
        type            patch;
        nFaces          60;
        startFace       7140;
    }
    left
    {
        type            patch;
        nFaces          60;
        startFace       7200;
    }
    right
    {
        type            patch;
        nFaces          60;
        startFace       7260;
    }
    defaultFaces
    {
        type            empty;
        inGroups        1(empty);
        nFaces          7200;
        startFace       7320;
    }
)

// ************************************************************************* //
