/*--------------------------------*- C++ -*----------------------------------*\
| =========                 |                                                 |
| \\      /  F ield         | OpenFOAM: The Open Source CFD Toolbox           |
|  \\    /   O peration     | Version:  dev                                   |
|   \\  /    A nd           | Web:      www.OpenFOAM.org                      |
|    \\/     M anipulation  |                                                 |
\*---------------------------------------------------------------------------*/
FoamFile
{
    version     2.0;
    format      ascii;
    class       surfaceScalarField;
    location    "constant";
    object      muSponge;
}
// * * * * * * * * * * * * * * * * * * * * * * * * * * * * * * * * * * * * * //

dimensions      [0 0 0 0 0 0 0];

internalField   nonuniform List<scalar> 
5016
(
0
0
0
0
0
0
0
0
0
0
0
0
0
0
0
0
0
0
0
0
0
0
0
0
0
0
0
0
0
0
0
0
0
0
0
0
0
0
0
0
0
0
0
0
0
0
0
0
0
0
0
0
0
0
0
0
0
0
0
0
0
0
0
0
0
0
0
0
0
0
0
0
0
0
0
0
0
0
0
0
0
0
0
0
0
0
0
0
0
0
0
0
0
0
0
0
0
0
0
0
0
0
0
0
0
0
0
0
0
0
0
0
0
0
0
0
0
0
0
0
0
0
0
0
0
0
0
0
0
0
0
0
0
0
0
0
0
0
0
0
0
0
0
0
0
0
0
0
0
0
0
0
0
0
0
0
0
0
0
0
0
0
0
0
0
0
0
0
0
0
0
0
0
0
0
0
0
0
0
0
0
0
0
0
0
0
0
0
0
0
0
0
0
0
0
0
0
0
0
0
0
0
0
0
0
0
0
0
0
0
0
0
0
0
0
0
0
0
0
0
0
0
0
0
0
0
0
0
0
0
0
0
0
0
0
0
0
0
0
0
0
0
0
0
0
0
0
0
0
0
0
0
0
0
0
0
0
0
0
0
0
0
0
0
0
0
0
0
0
0
0
0
0
0
0
0
0
0
0
0
0
0
0
0
0
0
0
0
0
0
0
0
0
0
0
0
0
0
0
0
0
0
0
0
0
0
0
0
0
0
0
0
0
0
0
0
0
0
0
0
0
0
0
0
0
0
0
0
0
0
0
0
0
0
0
0
0
0
0
0
0
0
0
0
0
0
0
0
0
0
0
0
0
0
0
0
0
0
0
0
0
0
0
0
0
0
0
0
0
0
0
0
0
0
0
0
0
0
0
0
0
0
0
0
0
0
0
0
0
0
0
0
0
0
0
0
0
0
0
0
0
0
0
0
0
0
0
0
0
0
0
0
0
0
0
0
0
0
0
0
0
0
0
0
0
0
0
0
0
0
0
0
0
0
0
0
0
0
0
0
0
0
0
0
0
0
0
0
0
0
0
0
0
0
0
0
0
0
0
0
0
0
0
0
0
0
0
0
0
0
0
0
0
0
0
0
0
0
0
0
0
0
0
0
0
0
0
0
0
0
0
0
0
0
0
0
0
0
0
0
0
0
0
0
0
0
0
0
0
0
0
0
0
0
0
0
0
0
0
0
0
0
0
0
0
0
0
0
0
0
0
0
0
0
0
0
0
0
0
0
0
0
0
0
0
0
0
0
0
0
0
0
0
0
0
0
0
0
0
0
0
0
0
0
0
0
0
0
0
0
0
0
0
0
0
0
0
0
0
0
0
0
0
0
0
0
0
0
0
0
0
0
0
0
0
0
0
0
0
0
0
0
0
0
0
0
0
0
0
0
0
0
0
0
0
0
0
0
0
0
0
0
0
0
0
0
0
0
0
0
0
0
0
0
0
0
0
0
0
0
0
0
0
0
0
0
0
0
0
0
0
0
0
0
0
0
0
0
0
0
0
0
0
0
0
0
0
0
0
0
0
0
0
0
0
0
0
0
0
0
0
0
0
0
0
0
0
0
0
0
0
0
0
0
0
0
0
0
0
0
0
0
0
0
0
0
0
0
0
0
0
0
0
0
0
0
0
0
0
0
0
0
0
0
0
0
0
0
0
0
0
0
0
0
0
0
0
0
0
0
0
0
0
0
0
0
0
0
0
0
0
0
0
0
0
0
0
0
0
0
0
0
0
0
0
0
0
0
0
0
0
0
0
0
0
0
0
0
0
0
0
0
0
0
0
0
0
0
0
0
0
0
0
0
0
0
0
0
0
0
0
0
0
0
0
0
0
0
0
0
0
0
0
0
0
0
0
0
0
0
0
0
0
0
0
0
0
0
0
0
0
0
0
0
0
0
0
0
0
0
0
0
0
0
0
0
0
0
0
0
0
0
0
0
0
0
0
0
0
0
0
0
0
0
0
0
0
0
0
0
0
0
0
0
0
0
0
0
0
0
0
0
0
0
0
0
0
0
0
0
0
0
0
0
0
0
0
0
0
0
0
0
0
0
0
0
0
0
0
0
0
0
0
0
0
0
0
0
0
0
0
0
0
0
0
0
0
0
0
0
0
0
0
0
0
0
0
0
0
0
0
0
0
0
0
0
0
0
0
0
0
0
0
0
0
0
0
0
0
0
0
0
0
0
0
0
0
0
0
0
0
0
0
0
0
0
0
0
0
0
0
0
0
0
0
0
0
0
0
0
0
0
0
0
0
0
0
0
0
0
0
0
0
0
0
0
0
0
0
0
0
0
0
0
0
0
0
0
0
0
0
0
0
0
0
0
0
0
0
0
0
0
0
0
0
0
0
0
0
0
0
0
0
0
0
0
0
0
0
0
0
0
0
0
0
0
0
0
0
0
0
0
0
0
0
0
0
0
0
0
0
0
0
0
0
0
0
0
0
0
0
0
0
0
0
0
0
0
0
0
0
0
0
0
0
0
0
0
0
0
0
0
0
0
0
0
0
0
0
0
0
0
0
0
0
0
0
0
0
0
0
0
0
0
0
0
0
0
0
0
0
0
0
0
0
0
0
0
0
0
0
0
0
0
0
0
0
0
0
0
0
0
0
0
0
0
0
0
0
0
0
0
0
0
0
0
0
0
0
0
0
0
0
0
0
0
0
0
0
0
0
0
0
0
0
0
0
0
0
0
0
0
0
0
0
0
0
0
0
0
0
0
0
0
0
0
0
0
0
0
0
0
0
0
0
0
0
0
0
0
0
0
0
0
0
0
0
0
0
0
0
0
0
0
0
0
0
0
0
0
0
0
0
0
0
0
0
0
0
0
0
0
0
0
0
0
0
0
0
0
0
0
0
0
0
0
0
0
0
0
0
0
0
0
0
0
0
0
0
0
0
0
0
0
0
0
0
0
0
0
0
0
0
0
0
0
0
0
0
0
0
0
0
0
0
0
0
0
0
0
0
0
0
0
0
0
0
0
0
0
0
0
0
0
0
0
0
0
0
0
0
0
0
0
0
0
0
0
0
0
0
0
0
0
0
0
0
0
0
0
0
0
0
0
0
0
0
0
0
0
0
0
0
0
0
0
0
0
0
0
0
0
0
0
0
0
0
0
0
0
0
0
0
0
0
0
0
0
0
0
0
0
0
0
0
0
0
0
0
0
0
0
0
0
0
0
0
0
0
0
0
0
0
0
0
0
0
0
0
0
0
0
0
0
0
0
0
0
0
0
0
0
0
0
0
0
0
0
0
0
0
0
0
0
0
0
0
0
0
0
0
0
0
0
0
0
0
0
0
0
0
0
0
0
0
0
0
0
0
0
0
0
0
0
0
0
0
0
0
0
0
0
0
0
0
0
0
0
0
0
0
0
0
0
0
0
0
0
0
0
0
0
0
0
0
0
0
0
0
0
0
0
0
0
0
0
0
0
0
0
0
0
0
0
0
0
0
0
0
0
0
0
0
0
0
0
0
0
0
0
0
0
0
0
0
0
0
0
0
0
0
0
0
0
0
0
0
0
0
0
0
0
0
0
0
0
0
0
0
0
0
0
0
0
0
0
0
0
0
0
0
0
0
0
0
0
0
0
0
0
0
0
0
0
0
0
0
0
0
0
0
0
0
0
0
0
0
0
0
0
0
0
0
0
0
0
0
0
0
0
0
0
0
0
0
0
0
0
0
0
0
0
0
0
0
0
0
0
0
0
0
0
0
0
0
0
0
0
0
0
0
0
0
0
0
0
0
0
0
0
0
0
0
0
0
0
0
0
0
0
0
0
0
0
0
0
0
0
0
0
0
0
0
0
0
0
0
0
0
0
0
0
0
0
0
0
0
0
0
0
0
0
0
0
0
0
0
0
0
0
0
0
0
0
0
0
0
0
0
0
0
0
0
0
0
0
0
0
0
0
0
0
0
0
0
0
0
0
0
0
0
0
0
0
0
0
0
0
0
0
0
0
0
0
0
0
0
0
0
0
0
0
0
0
0
0
0
0
0
0
0
0
0
0
0
0
0
0
0
0
0
0
0
0
0
0
0
0
0
0
0
0
0
0
0
0
0
0
0
0
0
0
0
0
0
0
0
0
0
0
0
0
0
0
0
0
0
0
0
0
0
0
0
0
0
0
0
0
0
0
0
0
0
0
0
0
0
0
0
0
0
0
0
0
0
0
0
0
0
0
0
0
0
0
0
0
0
0
0
0
0
0
0
0
0
0
0
0
0
0
0
0
0
0
0
0
0
0
0
0
0
0
0
0
0
0
0
0
0
0
0
0
0
0
0
0
0
0
0
0
0
0
0
0
0
0
0
0
0
0
0
0
0
0
0
0
0
0
0
0
0
0
0
0
0
0
0
0
0
0
0
0
0
0
0
0
0
0
0
0
0
0
0
0
0
0
0
0
0
0
0
0
0
0
0
0
0
0
0
0
0
0
0
0
0
0
0
0
0
0
0
0
0
0
0
0
0
0
0
0
0
0
0
0
0
0
0
0
0
0
0
0
0
0
0
0
0
0
0
0
0
0
0
0
0
0
0
0
0
0
0
0
0
0
0
0
0
0
0
0
0
0
0
0
0
0
0
0
0
0
0
0
0
0
0
0
0
0
0
0
0
0
0
0
0
0
0
0
0
0
0
0
0
0
0
0
0
0
0
0
0
0
0
0
0
0
0
0
0
0
0
0
0
0
0
0
0
0
0
0
0
0
0
0
0
0
0
0
0
0
0
0
0
0
0
0
0
0
0
0
0
0
0
0
0
0
0
0
0
0
0
0
0
0
0
0
0
0
0
0
0
0
0
0
0
0
0
0
0
0
0
0
0
0
0
0
0
0
0
0
0
0
0
0
0
0
0
0
0
0
0
0
0
0
0
0
0
0
0
0
0
0
0
0
0
0
0
0
0
0
0
0
0
0
0
0
0
0
0
0
0
0
0
0
0
0
0
0
0
0
0
0
0
0
0
0
0
0
0
0
0
0
0
0
0
0
0
0
0
0
0
0
0
0
0
0
0
0
0
0
0
0
0
0
0
0
0
0
0
0
0
0
0
0
0
0
0
0
0
0
0
0
0
0
0
0
0
0
0
0
0
0
0
0
0
0
0
0
0
0
0
0
0
0
0
0
0
0
0
0
0
0
0
0
0
0
0
0
0
0
0
0
0
0
0
0
0
0
0
0
0
0
0
0
0
0
0
0
0
0
0
0
0
0
0
0
0
0
0
0
0
0
0
0
0
0
0
0
0
0
0
0
0
0
0
0
0
0
0
0
0
0
0
0
0
0
0
0
0
0
0
0
0
0
0
0
0
0
0
0
0
0
0
0
0
0
0
0
0
0
0
0
0
0
0
0
0
0
0
0
0
0
0
0
0
0
0
0
0
0
0
0
0
0
0
0
0
0
0
0
0
0
0
0
0
0
0
0
0
0
0
0
0
0
0
0
0
0
0
0
0
0
0
0
0
0
0
0
0
0
0
0
0
0
0
0
0
0
0
0
0
0
0
0
0
0
0
0
0
0
0
0
0
0
0
0
0
0
0
0
0
0
0
0
0
0
0
0
0
0
0
0
0
0
0
0
0
0
0
0
0
0
0
0
0
0
0
0
0
0
0
0
0
0
0
0
0
0
0
0
0
0
0
0
0
0
0
0
0
0
0
0
0
0
0
0
0
0
0
0
0
0
0
0
0
0
0
0
0
0
0
0
0
0
0
0
0
0
0
0
0
0
0
0
0
0
0
0
0
0
0
0
0
0
0
0
0
0
0
0
0
0
0
0
0
0
0
0
0
0
0
0
0
0
0
0
0
0
0
0
0
0
0
0
0
0
0
0
0
0
0
0
0
0
0
0
0
0
0
0
0
0
0
0
0
0
0
0
0
0
0
0
0
0
0
0
0
0
0
0
0
0
0
0
0
0
0
0
0
0
0
0
0
0
0
0
0
0
0
0
0
0
0
0
0
0
0
0
0
0
0
0
0
0
0
0
0
0
0
0
0
0
0
0
0
0
0
0
0
0
0
0
0
0
0
0
0
0
0
0
0
0
0
0
0
0
0
0
0
0
0
0
0
0
0
0
0
0
0
0
0
0
0
0
0
0
0
0
0
0
0
0
0
0
0
0
0
0
0
0
0
0
0
0
0
0
0
0
0
0
0
0
0
0
0
0
0
0
0
0
0
0
0
0
0
0
0
0
0
0
0
0
0
0
0
0
0
0
0
0
0
0
0
0
0
0
0
0
0
0
0
0
0
0
0
0
0
0
0
0
0
0
0
0
0
0
0
0
0
0
0
0
0
0
0
0
0
0
0
0
0
0
0
0
0
0
0
0
0
0
0
0
0
0
0
0
0
0
0
0
0
0
0
0
0
0
0
0
0
0
0
0
0
0
0
0
0
0
0
0
0
0
0
0
0
0
0
0
0
0
0
0
0
0
0
0
0
0
0
0
0
0
0
0
0
0
0
0
0
0
0
0
0
0
0
0
0
0
0
0
0
0
0
0
0
0
0
0
0
0
0
0
0
0
0
0
0
0
0
0
0
0
0
0
0
0
0
0
0
0
0
0
0
0
0
0
0
0
0
0
0
0
0
0
0
0
0
0
0
0
0
0
0.00878761879934
0
0.00878761879934
0
0.00878761879934
0
0.00878761879934
0
0.00878761879934
0
0.00878761879934
0
0.00878761879934
0
0.00878761879934
0
0.00878761879934
0
0.00878761879934
0
0.00878761879934
0
0.00878761879934
0
0.00878761879934
0
0.00878761879934
0
0.00878761879934
0
0.00878761879934
0
0.00878761879934
0
0.00878761879934
0
0.00878761879934
0
0.00878761879934
0
0.00878761879934
0
0.00878761879934
0
0.00878761879934
0
0.00878761879934
0
0.00878761879934
0
0.00878761879934
0
0.00878761879934
0
0.00878761879934
0
0.00878761879934
0
0.00878761879934
0
0.00878761879934
0
0.00878761879934
0
0.00878761879934
0
0.00878761879934
0
0.00878761879934
0
0.00878761879934
0
0.00878761879934
0
0.00878761879934
0
0.00878761879934
0
0.00878761879934
0
0.00878761879934
0
0.00878761879934
0
0.00878761879934
0
0.00878761879934
0
0.00878761879934
0
0.00878761879934
0
0.00878761879934
0
0.00878761879934
0
0.00878761879934
0
0.00878761879934
0
0.00878761879934
0
0.00878761879934
0
0.00878761879934
0
0.00878761879934
0
0.00878761879934
0
0.00878761879934
0
0.00878761879934
0
0.00878761879934
0
0.00878761879934
0
0.00878761879934
0
0.00878761879934
0
0.00878761879934
0
0.00878761879934
0.00878761879934
0
0.0378298247522
0
0.0378298247522
0
0.0378298247522
0
0.0378298247522
0
0.0378298247522
0
0.0378298247522
0
0.0378298247522
0
0.0378298247522
0
0.0378298247522
0
0.0378298247522
0
0.0378298247522
0
0.0378298247522
0
0.0378298247522
0
0.0378298247522
0
0.0378298247522
0
0.0378298247522
0
0.0378298247522
0
0.0378298247522
0
0.0378298247522
0
0.0378298247522
0
0.0378298247522
0
0.0378298247522
0
0.0378298247522
0
0.0378298247522
0
0.0378298247522
0
0.0378298247522
0
0.0378298247522
0
0.0378298247522
0
0.0378298247522
0
0.0378298247522
0
0.0378298247522
0
0.0378298247522
0
0.0378298247522
0
0.0378298247522
0
0.0378298247522
0
0.0378298247522
0
0.0378298247522
0
0.0378298247522
0
0.0378298247522
0
0.0378298247522
0
0.0378298247522
0
0.0378298247522
0
0.0378298247522
0
0.0378298247522
0
0.0378298247522
0
0.0378298247522
0
0.0378298247522
0
0.0378298247522
0
0.0378298247522
0
0.0378298247522
0
0.0378298247522
0
0.0378298247522
0
0.0378298247522
0
0.0378298247522
0
0.0378298247522
0
0.0378298247522
0
0.0378298247522
0
0.0378298247522
0
0.0378298247522
0
0.0378298247522
0
0.0378298247522
0
0.0378298247522
0
0.0378298247522
0.0378298247522
0
0.0861898176252
0
0.0861898176252
0
0.0861898176252
0
0.0861898176252
0
0.0861898176252
0
0.0861898176252
0
0.0861898176252
0
0.0861898176252
0
0.0861898176252
0
0.0861898176252
0
0.0861898176252
0
0.0861898176252
0
0.0861898176252
0
0.0861898176252
0
0.0861898176252
0
0.0861898176252
0
0.0861898176252
0
0.0861898176252
0
0.0861898176252
0
0.0861898176252
0
0.0861898176252
0
0.0861898176252
0
0.0861898176252
0
0.0861898176252
0
0.0861898176252
0
0.0861898176252
0
0.0861898176252
0
0.0861898176252
0
0.0861898176252
0
0.0861898176252
0
0.0861898176252
0
0.0861898176252
0
0.0861898176252
0
0.0861898176252
0
0.0861898176252
0
0.0861898176252
0
0.0861898176252
0
0.0861898176252
0
0.0861898176252
0
0.0861898176252
0
0.0861898176252
0
0.0861898176252
0
0.0861898176252
0
0.0861898176252
0
0.0861898176252
0
0.0861898176252
0
0.0861898176252
0
0.0861898176252
0
0.0861898176252
0
0.0861898176252
0
0.0861898176252
0
0.0861898176252
0
0.0861898176252
0
0.0861898176252
0
0.0861898176252
0
0.0861898176252
0
0.0861898176252
0
0.0861898176252
0
0.0861898176252
0
0.0861898176252
0
0.0861898176252
0
0.0861898176252
0
0.0861898176252
0.0861898176252
0
0.152205808731
0
0.152205808731
0
0.152205808731
0
0.152205808731
0
0.152205808731
0
0.152205808731
0
0.152205808731
0
0.152205808731
0
0.152205808731
0
0.152205808731
0
0.152205808731
0
0.152205808731
0
0.152205808731
0
0.152205808731
0
0.152205808731
0
0.152205808731
0
0.152205808731
0
0.152205808731
0
0.152205808731
0
0.152205808731
0
0.152205808731
0
0.152205808731
0
0.152205808731
0
0.152205808731
0
0.152205808731
0
0.152205808731
0
0.152205808731
0
0.152205808731
0
0.152205808731
0
0.152205808731
0
0.152205808731
0
0.152205808731
0
0.152205808731
0
0.152205808731
0
0.152205808731
0
0.152205808731
0
0.152205808731
0
0.152205808731
0
0.152205808731
0
0.152205808731
0
0.152205808731
0
0.152205808731
0
0.152205808731
0
0.152205808731
0
0.152205808731
0
0.152205808731
0
0.152205808731
0
0.152205808731
0
0.152205808731
0
0.152205808731
0
0.152205808731
0
0.152205808731
0
0.152205808731
0
0.152205808731
0
0.152205808731
0
0.152205808731
0
0.152205808731
0
0.152205808731
0
0.152205808731
0
0.152205808731
0
0.152205808731
0
0.152205808731
0
0.152205808731
0.152205808731
0
0.233609298412
0
0.233609298412
0
0.233609298412
0
0.233609298412
0
0.233609298412
0
0.233609298412
0
0.233609298412
0
0.233609298412
0
0.233609298412
0
0.233609298412
0
0.233609298412
0
0.233609298412
0
0.233609298412
0
0.233609298412
0
0.233609298412
0
0.233609298412
0
0.233609298412
0
0.233609298412
0
0.233609298412
0
0.233609298412
0
0.233609298412
0
0.233609298412
0
0.233609298412
0
0.233609298412
0
0.233609298412
0
0.233609298412
0
0.233609298412
0
0.233609298412
0
0.233609298412
0
0.233609298412
0
0.233609298412
0
0.233609298412
0
0.233609298412
0
0.233609298412
0
0.233609298412
0
0.233609298412
0
0.233609298412
0
0.233609298412
0
0.233609298412
0
0.233609298412
0
0.233609298412
0
0.233609298412
0
0.233609298412
0
0.233609298412
0
0.233609298412
0
0.233609298412
0
0.233609298412
0
0.233609298412
0
0.233609298412
0
0.233609298412
0
0.233609298412
0
0.233609298412
0
0.233609298412
0
0.233609298412
0
0.233609298412
0
0.233609298412
0
0.233609298412
0
0.233609298412
0
0.233609298412
0
0.233609298412
0
0.233609298412
0
0.233609298412
0
0.233609298412
0.233609298412
0
0.327603028228
0
0.327603028228
0
0.327603028228
0
0.327603028228
0
0.327603028228
0
0.327603028228
0
0.327603028228
0
0.327603028228
0
0.327603028228
0
0.327603028228
0
0.327603028228
0
0.327603028228
0
0.327603028228
0
0.327603028228
0
0.327603028228
0
0.327603028228
0
0.327603028228
0
0.327603028228
0
0.327603028228
0
0.327603028228
0
0.327603028228
0
0.327603028228
0
0.327603028228
0
0.327603028228
0
0.327603028228
0
0.327603028228
0
0.327603028228
0
0.327603028228
0
0.327603028228
0
0.327603028228
0
0.327603028228
0
0.327603028228
0
0.327603028228
0
0.327603028228
0
0.327603028228
0
0.327603028228
0
0.327603028228
0
0.327603028228
0
0.327603028228
0
0.327603028228
0
0.327603028228
0
0.327603028228
0
0.327603028228
0
0.327603028228
0
0.327603028228
0
0.327603028228
0
0.327603028228
0
0.327603028228
0
0.327603028228
0
0.327603028228
0
0.327603028228
0
0.327603028228
0
0.327603028228
0
0.327603028228
0
0.327603028228
0
0.327603028228
0
0.327603028228
0
0.327603028228
0
0.327603028228
0
0.327603028228
0
0.327603028228
0
0.327603028228
0
0.327603028228
0.327603028228
0
0.430957102811
0
0.430957102811
0
0.430957102811
0
0.430957102811
0
0.430957102811
0
0.430957102811
0
0.430957102811
0
0.430957102811
0
0.430957102811
0
0.430957102811
0
0.430957102811
0
0.430957102811
0
0.430957102811
0
0.430957102811
0
0.430957102811
0
0.430957102811
0
0.430957102811
0
0.430957102811
0
0.430957102811
0
0.430957102811
0
0.430957102811
0
0.430957102811
0
0.430957102811
0
0.430957102811
0
0.430957102811
0
0.430957102811
0
0.430957102811
0
0.430957102811
0
0.430957102811
0
0.430957102811
0
0.430957102811
0
0.430957102811
0
0.430957102811
0
0.430957102811
0
0.430957102811
0
0.430957102811
0
0.430957102811
0
0.430957102811
0
0.430957102811
0
0.430957102811
0
0.430957102811
0
0.430957102811
0
0.430957102811
0
0.430957102811
0
0.430957102811
0
0.430957102811
0
0.430957102811
0
0.430957102811
0
0.430957102811
0
0.430957102811
0
0.430957102811
0
0.430957102811
0
0.430957102811
0
0.430957102811
0
0.430957102811
0
0.430957102811
0
0.430957102811
0
0.430957102811
0
0.430957102811
0
0.430957102811
0
0.430957102811
0
0.430957102811
0
0.430957102811
0.430957102811
0
0.54011997838
0
0.54011997838
0
0.54011997838
0
0.54011997838
0
0.54011997838
0
0.54011997838
0
0.54011997838
0
0.54011997838
0
0.54011997838
0
0.54011997838
0
0.54011997838
0
0.54011997838
0
0.54011997838
0
0.54011997838
0
0.54011997838
0
0.54011997838
0
0.54011997838
0
0.54011997838
0
0.54011997838
0
0.54011997838
0
0.54011997838
0
0.54011997838
0
0.54011997838
0
0.54011997838
0
0.54011997838
0
0.54011997838
0
0.54011997838
0
0.54011997838
0
0.54011997838
0
0.54011997838
0
0.54011997838
0
0.54011997838
0
0.54011997838
0
0.54011997838
0
0.54011997838
0
0.54011997838
0
0.54011997838
0
0.54011997838
0
0.54011997838
0
0.54011997838
0
0.54011997838
0
0.54011997838
0
0.54011997838
0
0.54011997838
0
0.54011997838
0
0.54011997838
0
0.54011997838
0
0.54011997838
0
0.54011997838
0
0.54011997838
0
0.54011997838
0
0.54011997838
0
0.54011997838
0
0.54011997838
0
0.54011997838
0
0.54011997838
0
0.54011997838
0
0.54011997838
0
0.54011997838
0
0.54011997838
0
0.54011997838
0
0.54011997838
0
0.54011997838
0.54011997838
0
0.651340504016
0
0.651340504016
0
0.651340504016
0
0.651340504016
0
0.651340504016
0
0.651340504016
0
0.651340504016
0
0.651340504016
0
0.651340504016
0
0.651340504016
0
0.651340504016
0
0.651340504016
0
0.651340504016
0
0.651340504016
0
0.651340504016
0
0.651340504016
0
0.651340504016
0
0.651340504016
0
0.651340504016
0
0.651340504016
0
0.651340504016
0
0.651340504016
0
0.651340504016
0
0.651340504016
0
0.651340504016
0
0.651340504016
0
0.651340504016
0
0.651340504016
0
0.651340504016
0
0.651340504016
0
0.651340504016
0
0.651340504016
0
0.651340504016
0
0.651340504016
0
0.651340504016
0
0.651340504016
0
0.651340504016
0
0.651340504016
0
0.651340504016
0
0.651340504016
0
0.651340504016
0
0.651340504016
0
0.651340504016
0
0.651340504016
0
0.651340504016
0
0.651340504016
0
0.651340504016
0
0.651340504016
0
0.651340504016
0
0.651340504016
0
0.651340504016
0
0.651340504016
0
0.651340504016
0
0.651340504016
0
0.651340504016
0
0.651340504016
0
0.651340504016
0
0.651340504016
0
0.651340504016
0
0.651340504016
0
0.651340504016
0
0.651340504016
0
0.651340504016
0.651340504016
0
0.760796822014
0
0.760796822014
0
0.760796822014
0
0.760796822014
0
0.760796822014
0
0.760796822014
0
0.760796822014
0
0.760796822014
0
0.760796822014
0
0.760796822014
0
0.760796822014
0
0.760796822014
0
0.760796822014
0
0.760796822014
0
0.760796822014
0
0.760796822014
0
0.760796822014
0
0.760796822014
0
0.760796822014
0
0.760796822014
0
0.760796822014
0
0.760796822014
0
0.760796822014
0
0.760796822014
0
0.760796822014
0
0.760796822014
0
0.760796822014
0
0.760796822014
0
0.760796822014
0
0.760796822014
0
0.760796822014
0
0.760796822014
0
0.760796822014
0
0.760796822014
0
0.760796822014
0
0.760796822014
0
0.760796822014
0
0.760796822014
0
0.760796822014
0
0.760796822014
0
0.760796822014
0
0.760796822014
0
0.760796822014
0
0.760796822014
0
0.760796822014
0
0.760796822014
0
0.760796822014
0
0.760796822014
0
0.760796822014
0
0.760796822014
0
0.760796822014
0
0.760796822014
0
0.760796822014
0
0.760796822014
0
0.760796822014
0
0.760796822014
0
0.760796822014
0
0.760796822014
0
0.760796822014
0
0.760796822014
0
0.760796822014
0
0.760796822014
0
0.760796822014
0.760796822014
0
0.864727697927
0
0.864727697927
0
0.864727697927
0
0.864727697927
0
0.864727697927
0
0.864727697927
0
0.864727697927
0
0.864727697927
0
0.864727697927
0
0.864727697927
0
0.864727697927
0
0.864727697927
0
0.864727697927
0
0.864727697927
0
0.864727697927
0
0.864727697927
0
0.864727697927
0
0.864727697927
0
0.864727697927
0
0.864727697927
0
0.864727697927
0
0.864727697927
0
0.864727697927
0
0.864727697927
0
0.864727697927
0
0.864727697927
0
0.864727697927
0
0.864727697927
0
0.864727697927
0
0.864727697927
0
0.864727697927
0
0.864727697927
0
0.864727697927
0
0.864727697927
0
0.864727697927
0
0.864727697927
0
0.864727697927
0
0.864727697927
0
0.864727697927
0
0.864727697927
0
0.864727697927
0
0.864727697927
0
0.864727697927
0
0.864727697927
0
0.864727697927
0
0.864727697927
0
0.864727697927
0
0.864727697927
0
0.864727697927
0
0.864727697927
0
0.864727697927
0
0.864727697927
0
0.864727697927
0
0.864727697927
0
0.864727697927
0
0.864727697927
0
0.864727697927
0
0.864727697927
0
0.864727697927
0
0.864727697927
0
0.864727697927
0
0.864727697927
0
0.864727697927
0.864727697927
0
0.959561767418
0
0.959561767418
0
0.959561767418
0
0.959561767418
0
0.959561767418
0
0.959561767418
0
0.959561767418
0
0.959561767418
0
0.959561767418
0
0.959561767418
0
0.959561767418
0
0.959561767418
0
0.959561767418
0
0.959561767418
0
0.959561767418
0
0.959561767418
0
0.959561767418
0
0.959561767418
0
0.959561767418
0
0.959561767418
0
0.959561767418
0
0.959561767418
0
0.959561767418
0
0.959561767418
0
0.959561767418
0
0.959561767418
0
0.959561767418
0
0.959561767418
0
0.959561767418
0
0.959561767418
0
0.959561767418
0
0.959561767418
0
0.959561767418
0
0.959561767418
0
0.959561767418
0
0.959561767418
0
0.959561767418
0
0.959561767418
0
0.959561767418
0
0.959561767418
0
0.959561767418
0
0.959561767418
0
0.959561767418
0
0.959561767418
0
0.959561767418
0
0.959561767418
0
0.959561767418
0
0.959561767418
0
0.959561767418
0
0.959561767418
0
0.959561767418
0
0.959561767418
0
0.959561767418
0
0.959561767418
0
0.959561767418
0
0.959561767418
0
0.959561767418
0
0.959561767418
0
0.959561767418
0
0.959561767418
0
0.959561767418
0
0.959561767418
0
0.959561767418
0.959561767418
0
1.04204025863
0
1.04204025863
0
1.04204025863
0
1.04204025863
0
1.04204025863
0
1.04204025863
0
1.04204025863
0
1.04204025863
0
1.04204025863
0
1.04204025863
0
1.04204025863
0
1.04204025863
0
1.04204025863
0
1.04204025863
0
1.04204025863
0
1.04204025863
0
1.04204025863
0
1.04204025863
0
1.04204025863
0
1.04204025863
0
1.04204025863
0
1.04204025863
0
1.04204025863
0
1.04204025863
0
1.04204025863
0
1.04204025863
0
1.04204025863
0
1.04204025863
0
1.04204025863
0
1.04204025863
0
1.04204025863
0
1.04204025863
0
1.04204025863
0
1.04204025863
0
1.04204025863
0
1.04204025863
0
1.04204025863
0
1.04204025863
0
1.04204025863
0
1.04204025863
0
1.04204025863
0
1.04204025863
0
1.04204025863
0
1.04204025863
0
1.04204025863
0
1.04204025863
0
1.04204025863
0
1.04204025863
0
1.04204025863
0
1.04204025863
0
1.04204025863
0
1.04204025863
0
1.04204025863
0
1.04204025863
0
1.04204025863
0
1.04204025863
0
1.04204025863
0
1.04204025863
0
1.04204025863
0
1.04204025863
0
1.04204025863
0
1.04204025863
0
1.04204025863
1.04204025863
0
1.10932897297
0
1.10932897297
0
1.10932897297
0
1.10932897297
0
1.10932897297
0
1.10932897297
0
1.10932897297
0
1.10932897297
0
1.10932897297
0
1.10932897297
0
1.10932897297
0
1.10932897297
0
1.10932897297
0
1.10932897297
0
1.10932897297
0
1.10932897297
0
1.10932897297
0
1.10932897297
0
1.10932897297
0
1.10932897297
0
1.10932897297
0
1.10932897297
0
1.10932897297
0
1.10932897297
0
1.10932897297
0
1.10932897297
0
1.10932897297
0
1.10932897297
0
1.10932897297
0
1.10932897297
0
1.10932897297
0
1.10932897297
0
1.10932897297
0
1.10932897297
0
1.10932897297
0
1.10932897297
0
1.10932897297
0
1.10932897297
0
1.10932897297
0
1.10932897297
0
1.10932897297
0
1.10932897297
0
1.10932897297
0
1.10932897297
0
1.10932897297
0
1.10932897297
0
1.10932897297
0
1.10932897297
0
1.10932897297
0
1.10932897297
0
1.10932897297
0
1.10932897297
0
1.10932897297
0
1.10932897297
0
1.10932897297
0
1.10932897297
0
1.10932897297
0
1.10932897297
0
1.10932897297
0
1.10932897297
0
1.10932897297
0
1.10932897297
0
1.10932897297
1.10932897297
0
1.15911567634
0
1.15911567634
0
1.15911567634
0
1.15911567634
0
1.15911567634
0
1.15911567634
0
1.15911567634
0
1.15911567634
0
1.15911567634
0
1.15911567634
0
1.15911567634
0
1.15911567634
0
1.15911567634
0
1.15911567634
0
1.15911567634
0
1.15911567634
0
1.15911567634
0
1.15911567634
0
1.15911567634
0
1.15911567634
0
1.15911567634
0
1.15911567634
0
1.15911567634
0
1.15911567634
0
1.15911567634
0
1.15911567634
0
1.15911567634
0
1.15911567634
0
1.15911567634
0
1.15911567634
0
1.15911567634
0
1.15911567634
0
1.15911567634
0
1.15911567634
0
1.15911567634
0
1.15911567634
0
1.15911567634
0
1.15911567634
0
1.15911567634
0
1.15911567634
0
1.15911567634
0
1.15911567634
0
1.15911567634
0
1.15911567634
0
1.15911567634
0
1.15911567634
0
1.15911567634
0
1.15911567634
0
1.15911567634
0
1.15911567634
0
1.15911567634
0
1.15911567634
0
1.15911567634
0
1.15911567634
0
1.15911567634
0
1.15911567634
0
1.15911567634
0
1.15911567634
0
1.15911567634
0
1.15911567634
0
1.15911567634
0
1.15911567634
0
1.15911567634
1.15911567634
0
1.18968955417
0
1.18968955417
0
1.18968955417
0
1.18968955417
0
1.18968955417
0
1.18968955417
0
1.18968955417
0
1.18968955417
0
1.18968955417
0
1.18968955417
0
1.18968955417
0
1.18968955417
0
1.18968955417
0
1.18968955417
0
1.18968955417
0
1.18968955417
0
1.18968955417
0
1.18968955417
0
1.18968955417
0
1.18968955417
0
1.18968955417
0
1.18968955417
0
1.18968955417
0
1.18968955417
0
1.18968955417
0
1.18968955417
0
1.18968955417
0
1.18968955417
0
1.18968955417
0
1.18968955417
0
1.18968955417
0
1.18968955417
0
1.18968955417
0
1.18968955417
0
1.18968955417
0
1.18968955417
0
1.18968955417
0
1.18968955417
0
1.18968955417
0
1.18968955417
0
1.18968955417
0
1.18968955417
0
1.18968955417
0
1.18968955417
0
1.18968955417
0
1.18968955417
0
1.18968955417
0
1.18968955417
0
1.18968955417
0
1.18968955417
0
1.18968955417
0
1.18968955417
0
1.18968955417
0
1.18968955417
0
1.18968955417
0
1.18968955417
0
1.18968955417
0
1.18968955417
0
1.18968955417
0
1.18968955417
0
1.18968955417
0
1.18968955417
0
1.18968955417
1.18968955417
0
0
0
0
0
0
0
0
0
0
0
0
0
0
0
0
0
0
0
0
0
0
0
0
0
0
0
0
0
0
0
0
0
0
0
0
0
0
0
0
0
0
0
0
0
0
0
0
0
0
0
0
0
0
0
0
0
0
0
0
0
0
0
)
;

boundaryField
{
    left
    {
        type            calculated;
        value           uniform 0;
    }
    right
    {
        type            calculated;
        value           uniform 0;
    }
    ground
    {
        type            calculated;
        value           uniform 0;
    }
    top
    {
        type            calculated;
        value           uniform 0;
    }
    frontAndBack
    {
        type            empty;
        value           nonuniform 0();
    }
}


// ************************************************************************* //
