/*--------------------------------*- C++ -*----------------------------------*\
| =========                 |                                                 |
| \\      /  F ield         | OpenFOAM: The Open Source CFD Toolbox           |
|  \\    /   O peration     | Version:  dev                                   |
|   \\  /    A nd           | Web:      www.OpenFOAM.org                      |
|    \\/     M anipulation  |                                                 |
\*---------------------------------------------------------------------------*/
FoamFile
{
    version     2.0;
    format      ascii;
    class       surfaceScalarField;
    location    "constant";
    object      muSponge;
}
// * * * * * * * * * * * * * * * * * * * * * * * * * * * * * * * * * * * * * //

dimensions      [0 0 0 0 0 0 0];

internalField   nonuniform List<scalar> 
4690
(
0
1.19815040024
0
1.18342195224
0
1.15432771951
0
1.11158409861
0
1.05624357936
0
0.989668828998
0
0.91349913883
0
0.829610059419
0
0.740067218314
0
0.647075457437
0
0.552924542563
0
0.459932781686
0
0.370389940581
0
0.28650086117
0
0.210331171002
0
0.14375642064
0
0.0884159013875
0
0.0456722804932
0
0.0165780477614
0
0.00184959976012
0
0
0
0
0
0
0
0
0
0
0
0
0
0
0
0
0
0
0
0
0
0
0
0
0
0
0
0
0
0
0
0
0
0
0
0
0
0
0
0
0
0
0
0
0
0
0
0
0
0
0
0
0
0
0
0
0
0
0
0
0
0
0
0
0
0
0
0
0
0
0
0
0
0
0
0
0
0
0
0
0
0.00184959976012
0
0.0165780477614
0
0.0456722804932
0
0.0884159013875
0
0.14375642064
0
0.210331171002
0
0.28650086117
0
0.370389940581
0
0.459932781686
0
0.552924542563
0
0.647075457437
0
0.740067218314
0
0.829610059419
0
0.91349913883
0
0.989668828998
0
1.05624357936
0
1.11158409861
0
1.15432771951
0
1.18342195224
1.19815040024
0
1.19815040024
0
1.18342195224
0
1.15432771951
0
1.11158409861
0
1.05624357936
0
0.989668828998
0
0.91349913883
0
0.829610059419
0
0.740067218314
0
0.647075457437
0
0.552924542563
0
0.459932781686
0
0.370389940581
0
0.28650086117
0
0.210331171002
0
0.14375642064
0
0.0884159013875
0
0.0456722804932
0
0.0165780477614
0
0.00184959976012
0
0
0
0
0
0
0
0
0
0
0
0
0
0
0
0
0
0
0
0
0
0
0
0
0
0
0
0
0
0
0
0
0
0
0
0
0
0
0
0
0
0
0
0
0
0
0
0
0
0
0
0
0
0
0
0
0
0
0
0
0
0
0
0
0
0
0
0
0
0
0
0
0
0
0
0
0
0
0
0
0
0.00184959976012
0
0.0165780477614
0
0.0456722804932
0
0.0884159013875
0
0.14375642064
0
0.210331171002
0
0.28650086117
0
0.370389940581
0
0.459932781686
0
0.552924542563
0
0.647075457437
0
0.740067218314
0
0.829610059419
0
0.91349913883
0
0.989668828998
0
1.05624357936
0
1.11158409861
0
1.15432771951
0
1.18342195224
1.19815040024
0
1.19815040024
0
1.18342195224
0
1.15432771951
0
1.11158409861
0
1.05624357936
0
0.989668828998
0
0.91349913883
0
0.829610059419
0
0.740067218314
0
0.647075457437
0
0.552924542563
0
0.459932781686
0
0.370389940581
0
0.28650086117
0
0.210331171002
0
0.14375642064
0
0.0884159013875
0
0.0456722804932
0
0.0165780477614
0
0.00184959976012
0
0
0
0
0
0
0
0
0
0
0
0
0
0
0
0
0
0
0
0
0
0
0
0
0
0
0
0
0
0
0
0
0
0
0
0
0
0
0
0
0
0
0
0
0
0
0
0
0
0
0
0
0
0
0
0
0
0
0
0
0
0
0
0
0
0
0
0
0
0
0
0
0
0
0
0
0
0
0
0
0
0.00184959976012
0
0.0165780477614
0
0.0456722804932
0
0.0884159013875
0
0.14375642064
0
0.210331171002
0
0.28650086117
0
0.370389940581
0
0.459932781686
0
0.552924542563
0
0.647075457437
0
0.740067218314
0
0.829610059419
0
0.91349913883
0
0.989668828998
0
1.05624357936
0
1.11158409861
0
1.15432771951
0
1.18342195224
1.19815040024
0
1.19815040024
0
1.18342195224
0
1.15432771951
0
1.11158409861
0
1.05624357936
0
0.989668828998
0
0.91349913883
0
0.829610059419
0
0.740067218314
0
0.647075457437
0
0.552924542563
0
0.459932781686
0
0.370389940581
0
0.28650086117
0
0.210331171002
0
0.14375642064
0
0.0884159013875
0
0.0456722804932
0
0.0165780477614
0
0.00184959976012
0
0
0
0
0
0
0
0
0
0
0
0
0
0
0
0
0
0
0
0
0
0
0
0
0
0
0
0
0
0
0
0
0
0
0
0
0
0
0
0
0
0
0
0
0
0
0
0
0
0
0
0
0
0
0
0
0
0
0
0
0
0
0
0
0
0
0
0
0
0
0
0
0
0
0
0
0
0
0
0
0
0.00184959976012
0
0.0165780477614
0
0.0456722804932
0
0.0884159013875
0
0.14375642064
0
0.210331171002
0
0.28650086117
0
0.370389940581
0
0.459932781686
0
0.552924542563
0
0.647075457437
0
0.740067218314
0
0.829610059419
0
0.91349913883
0
0.989668828998
0
1.05624357936
0
1.11158409861
0
1.15432771951
0
1.18342195224
1.19815040024
0
1.19815040024
0
1.18342195224
0
1.15432771951
0
1.11158409861
0
1.05624357936
0
0.989668828998
0
0.91349913883
0
0.829610059419
0
0.740067218314
0
0.647075457437
0
0.552924542563
0
0.459932781686
0
0.370389940581
0
0.28650086117
0
0.210331171002
0
0.14375642064
0
0.0884159013875
0
0.0456722804932
0
0.0165780477614
0
0.00184959976012
0
0
0
0
0
0
0
0
0
0
0
0
0
0
0
0
0
0
0
0
0
0
0
0
0
0
0
0
0
0
0
0
0
0
0
0
0
0
0
0
0
0
0
0
0
0
0
0
0
0
0
0
0
0
0
0
0
0
0
0
0
0
0
0
0
0
0
0
0
0
0
0
0
0
0
0
0
0
0
0
0
0.00184959976012
0
0.0165780477614
0
0.0456722804932
0
0.0884159013875
0
0.14375642064
0
0.210331171002
0
0.28650086117
0
0.370389940581
0
0.459932781686
0
0.552924542563
0
0.647075457437
0
0.740067218314
0
0.829610059419
0
0.91349913883
0
0.989668828998
0
1.05624357936
0
1.11158409861
0
1.15432771951
0
1.18342195224
1.19815040024
0
1.19815040024
0
1.18342195224
0
1.15432771951
0
1.11158409861
0
1.05624357936
0
0.989668828998
0
0.91349913883
0
0.829610059419
0
0.740067218314
0
0.647075457437
0
0.552924542563
0
0.459932781686
0
0.370389940581
0
0.28650086117
0
0.210331171002
0
0.14375642064
0
0.0884159013875
0
0.0456722804932
0
0.0165780477614
0
0.00184959976012
0
0
0
0
0
0
0
0
0
0
0
0
0
0
0
0
0
0
0
0
0
0
0
0
0
0
0
0
0
0
0
0
0
0
0
0
0
0
0
0
0
0
0
0
0
0
0
0
0
0
0
0
0
0
0
0
0
0
0
0
0
0
0
0
0
0
0
0
0
0
0
0
0
0
0
0
0
0
0
0
0
0.00184959976012
0
0.0165780477614
0
0.0456722804932
0
0.0884159013875
0
0.14375642064
0
0.210331171002
0
0.28650086117
0
0.370389940581
0
0.459932781686
0
0.552924542563
0
0.647075457437
0
0.740067218314
0
0.829610059419
0
0.91349913883
0
0.989668828998
0
1.05624357936
0
1.11158409861
0
1.15432771951
0
1.18342195224
1.19815040024
0
1.19815040024
0
1.18342195224
0
1.15432771951
0
1.11158409861
0
1.05624357936
0
0.989668828998
0
0.91349913883
0
0.829610059419
0
0.740067218314
0
0.647075457437
0
0.552924542563
0
0.459932781686
0
0.370389940581
0
0.28650086117
0
0.210331171002
0
0.14375642064
0
0.0884159013875
0
0.0456722804932
0
0.0165780477614
0
0.00184959976012
0
0
0
0
0
0
0
0
0
0
0
0
0
0
0
0
0
0
0
0
0
0
0
0
0
0
0
0
0
0
0
0
0
0
0
0
0
0
0
0
0
0
0
0
0
0
0
0
0
0
0
0
0
0
0
0
0
0
0
0
0
0
0
0
0
0
0
0
0
0
0
0
0
0
0
0
0
0
0
0
0
0.00184959976012
0
0.0165780477614
0
0.0456722804932
0
0.0884159013875
0
0.14375642064
0
0.210331171002
0
0.28650086117
0
0.370389940581
0
0.459932781686
0
0.552924542563
0
0.647075457437
0
0.740067218314
0
0.829610059419
0
0.91349913883
0
0.989668828998
0
1.05624357936
0
1.11158409861
0
1.15432771951
0
1.18342195224
1.19815040024
0
1.19815040024
0
1.18342195224
0
1.15432771951
0
1.11158409861
0
1.05624357936
0
0.989668828998
0
0.91349913883
0
0.829610059419
0
0.740067218314
0
0.647075457437
0
0.552924542563
0
0.459932781686
0
0.370389940581
0
0.28650086117
0
0.210331171002
0
0.14375642064
0
0.0884159013875
0
0.0456722804932
0
0.0165780477614
0
0.00184959976012
0
0
0
0
0
0
0
0
0
0
0
0
0
0
0
0
0
0
0
0
0
0
0
0
0
0
0
0
0
0
0
0
0
0
0
0
0
0
0
0
0
0
0
0
0
0
0
0
0
0
0
0
0
0
0
0
0
0
0
0
0
0
0
0
0
0
0
0
0
0
0
0
0
0
0
0
0
0
0
0
0
0.00184959976012
0
0.0165780477614
0
0.0456722804932
0
0.0884159013875
0
0.14375642064
0
0.210331171002
0
0.28650086117
0
0.370389940581
0
0.459932781686
0
0.552924542563
0
0.647075457437
0
0.740067218314
0
0.829610059419
0
0.91349913883
0
0.989668828998
0
1.05624357936
0
1.11158409861
0
1.15432771951
0
1.18342195224
1.19815040024
0
1.19815040024
0
1.18342195224
0
1.15432771951
0
1.11158409861
0
1.05624357936
0
0.989668828998
0
0.91349913883
0
0.829610059419
0
0.740067218314
0
0.647075457437
0
0.552924542563
0
0.459932781686
0
0.370389940581
0
0.28650086117
0
0.210331171002
0
0.14375642064
0
0.0884159013875
0
0.0456722804932
0
0.0165780477614
0
0.00184959976012
0
0
0
0
0
0
0
0
0
0
0
0
0
0
0
0
0
0
0
0
0
0
0
0
0
0
0
0
0
0
0
0
0
0
0
0
0
0
0
0
0
0
0
0
0
0
0
0
0
0
0
0
0
0
0
0
0
0
0
0
0
0
0
0
0
0
0
0
0
0
0
0
0
0
0
0
0
0
0
0
0
0.00184959976012
0
0.0165780477614
0
0.0456722804932
0
0.0884159013875
0
0.14375642064
0
0.210331171002
0
0.28650086117
0
0.370389940581
0
0.459932781686
0
0.552924542563
0
0.647075457437
0
0.740067218314
0
0.829610059419
0
0.91349913883
0
0.989668828998
0
1.05624357936
0
1.11158409861
0
1.15432771951
0
1.18342195224
1.19815040024
0
1.19815040024
0
1.18342195224
0
1.15432771951
0
1.11158409861
0
1.05624357936
0
0.989668828998
0
0.91349913883
0
0.829610059419
0
0.740067218314
0
0.647075457437
0
0.552924542563
0
0.459932781686
0
0.370389940581
0
0.28650086117
0
0.210331171002
0
0.14375642064
0
0.0884159013875
0
0.0456722804932
0
0.0165780477614
0
0.00184959976012
0
0
0
0
0
0
0
0
0
0
0
0
0
0
0
0
0
0
0
0
0
0
0
0
0
0
0
0
0
0
0
0
0
0
0
0
0
0
0
0
0
0
0
0
0
0
0
0
0
0
0
0
0
0
0
0
0
0
0
0
0
0
0
0
0
0
0
0
0
0
0
0
0
0
0
0
0
0
0
0
0
0.00184959976012
0
0.0165780477614
0
0.0456722804932
0
0.0884159013875
0
0.14375642064
0
0.210331171002
0
0.28650086117
0
0.370389940581
0
0.459932781686
0
0.552924542563
0
0.647075457437
0
0.740067218314
0
0.829610059419
0
0.91349913883
0
0.989668828998
0
1.05624357936
0
1.11158409861
0
1.15432771951
0
1.18342195224
1.19815040024
0
1.19815040024
0
1.18342195224
0
1.15432771951
0
1.11158409861
0
1.05624357936
0
0.989668828998
0
0.91349913883
0
0.829610059419
0
0.740067218314
0
0.647075457437
0
0.552924542563
0
0.459932781686
0
0.370389940581
0
0.28650086117
0
0.210331171002
0
0.14375642064
0
0.0884159013875
0
0.0456722804932
0
0.0165780477614
0
0.00184959976012
0
0
0
0
0
0
0
0
0
0
0
0
0
0
0
0
0
0
0
0
0
0
0
0
0
0
0
0
0
0
0
0
0
0
0
0
0
0
0
0
0
0
0
0
0
0
0
0
0
0
0
0
0
0
0
0
0
0
0
0
0
0
0
0
0
0
0
0
0
0
0
0
0
0
0
0
0
0
0
0
0
0.00184959976012
0
0.0165780477614
0
0.0456722804932
0
0.0884159013875
0
0.14375642064
0
0.210331171002
0
0.28650086117
0
0.370389940581
0
0.459932781686
0
0.552924542563
0
0.647075457437
0
0.740067218314
0
0.829610059419
0
0.91349913883
0
0.989668828998
0
1.05624357936
0
1.11158409861
0
1.15432771951
0
1.18342195224
1.19815040024
0
1.19815040024
0
1.18342195224
0
1.15432771951
0
1.11158409861
0
1.05624357936
0
0.989668828998
0
0.91349913883
0
0.829610059419
0
0.740067218314
0
0.647075457437
0
0.552924542563
0
0.459932781686
0
0.370389940581
0
0.28650086117
0
0.210331171002
0
0.14375642064
0
0.0884159013875
0
0.0456722804932
0
0.0165780477614
0
0.00184959976012
0
0
0
0
0
0
0
0
0
0
0
0
0
0
0
0
0
0
0
0
0
0
0
0
0
0
0
0
0
0
0
0
0
0
0
0
0
0
0
0
0
0
0
0
0
0
0
0
0
0
0
0
0
0
0
0
0
0
0
0
0
0
0
0
0
0
0
0
0
0
0
0
0
0
0
0
0
0
0
0
0
0.00184959976012
0
0.0165780477614
0
0.0456722804932
0
0.0884159013875
0
0.14375642064
0
0.210331171002
0
0.28650086117
0
0.370389940581
0
0.459932781686
0
0.552924542563
0
0.647075457437
0
0.740067218314
0
0.829610059419
0
0.91349913883
0
0.989668828998
0
1.05624357936
0
1.11158409861
0
1.15432771951
0
1.18342195224
1.19815040024
0
1.19815040024
0
1.18342195224
0
1.15432771951
0
1.11158409861
0
1.05624357936
0
0.989668828998
0
0.91349913883
0
0.829610059419
0
0.740067218314
0
0.647075457437
0
0.552924542563
0
0.459932781686
0
0.370389940581
0
0.28650086117
0
0.210331171002
0
0.14375642064
0
0.0884159013875
0
0.0456722804932
0
0.0165780477614
0
0.00184959976012
0
0
0
0
0
0
0
0
0
0
0
0
0
0
0
0
0
0
0
0
0
0
0
0
0
0
0
0
0
0
0
0
0
0
0
0
0
0
0
0
0
0
0
0
0
0
0
0
0
0
0
0
0
0
0
0
0
0
0
0
0
0
0
0
0
0
0
0
0
0
0
0
0
0
0
0
0
0
0
0
0
0.00184959976012
0
0.0165780477614
0
0.0456722804932
0
0.0884159013875
0
0.14375642064
0
0.210331171002
0
0.28650086117
0
0.370389940581
0
0.459932781686
0
0.552924542563
0
0.647075457437
0
0.740067218314
0
0.829610059419
0
0.91349913883
0
0.989668828998
0
1.05624357936
0
1.11158409861
0
1.15432771951
0
1.18342195224
1.19815040024
0
1.19815040024
0
1.18342195224
0
1.15432771951
0
1.11158409861
0
1.05624357936
0
0.989668828998
0
0.91349913883
0
0.829610059419
0
0.740067218314
0
0.647075457437
0
0.552924542563
0
0.459932781686
0
0.370389940581
0
0.28650086117
0
0.210331171002
0
0.14375642064
0
0.0884159013875
0
0.0456722804932
0
0.0165780477614
0
0.00184959976012
0
0
0
0
0
0
0
0
0
0
0
0
0
0
0
0
0
0
0
0
0
0
0
0
0
0
0
0
0
0
0
0
0
0
0
0
0
0
0
0
0
0
0
0
0
0
0
0
0
0
0
0
0
0
0
0
0
0
0
0
0
0
0
0
0
0
0
0
0
0
0
0
0
0
0
0
0
0
0
0
0
0.00184959976012
0
0.0165780477614
0
0.0456722804932
0
0.0884159013875
0
0.14375642064
0
0.210331171002
0
0.28650086117
0
0.370389940581
0
0.459932781686
0
0.552924542563
0
0.647075457437
0
0.740067218314
0
0.829610059419
0
0.91349913883
0
0.989668828998
0
1.05624357936
0
1.11158409861
0
1.15432771951
0
1.18342195224
1.19815040024
0
1.19815040024
0
1.18342195224
0
1.15432771951
0
1.11158409861
0
1.05624357936
0
0.989668828998
0
0.91349913883
0
0.829610059419
0
0.740067218314
0
0.647075457437
0
0.552924542563
0
0.459932781686
0
0.370389940581
0
0.28650086117
0
0.210331171002
0
0.14375642064
0
0.0884159013875
0
0.0456722804932
0
0.0165780477614
0
0.00184959976012
0
0
0
0
0
0
0
0
0
0
0
0
0
0
0
0
0
0
0
0
0
0
0
0
0
0
0
0
0
0
0
0
0
0
0
0
0
0
0
0
0
0
0
0
0
0
0
0
0
0
0
0
0
0
0
0
0
0
0
0
0
0
0
0
0
0
0
0
0
0
0
0
0
0
0
0
0
0
0
0
0
0.00184959976012
0
0.0165780477614
0
0.0456722804932
0
0.0884159013875
0
0.14375642064
0
0.210331171002
0
0.28650086117
0
0.370389940581
0
0.459932781686
0
0.552924542563
0
0.647075457437
0
0.740067218314
0
0.829610059419
0
0.91349913883
0
0.989668828998
0
1.05624357936
0
1.11158409861
0
1.15432771951
0
1.18342195224
1.19815040024
0
1.19815040024
0
1.18342195224
0
1.15432771951
0
1.11158409861
0
1.05624357936
0
0.989668828998
0
0.91349913883
0
0.829610059419
0
0.740067218314
0
0.647075457437
0
0.552924542563
0
0.459932781686
0
0.370389940581
0
0.28650086117
0
0.210331171002
0
0.14375642064
0
0.0884159013875
0
0.0456722804932
0
0.0165780477614
0
0.00184959976012
0
0
0
0
0
0
0
0
0
0
0
0
0
0
0
0
0
0
0
0
0
0
0
0
0
0
0
0
0
0
0
0
0
0
0
0
0
0
0
0
0
0
0
0
0
0
0
0
0
0
0
0
0
0
0
0
0
0
0
0
0
0
0
0
0
0
0
0
0
0
0
0
0
0
0
0
0
0
0
0
0
0.00184959976012
0
0.0165780477614
0
0.0456722804932
0
0.0884159013875
0
0.14375642064
0
0.210331171002
0
0.28650086117
0
0.370389940581
0
0.459932781686
0
0.552924542563
0
0.647075457437
0
0.740067218314
0
0.829610059419
0
0.91349913883
0
0.989668828998
0
1.05624357936
0
1.11158409861
0
1.15432771951
0
1.18342195224
1.19815040024
0
1.19815040024
0
1.18342195224
0
1.15432771951
0
1.11158409861
0
1.05624357936
0
0.989668828998
0
0.91349913883
0
0.829610059419
0
0.740067218314
0
0.647075457437
0
0.552924542563
0
0.459932781686
0
0.370389940581
0
0.28650086117
0
0.210331171002
0
0.14375642064
0
0.0884159013875
0
0.0456722804932
0
0.0165780477614
0
0.00184959976012
0
0
0
0
0
0
0
0
0
0
0
0
0
0
0
0
0
0
0
0
0
0
0
0
0
0
0
0
0
0
0
0
0
0
0
0
0
0
0
0
0
0
0
0
0
0
0
0
0
0
0
0
0
0
0
0
0
0
0
0
0
0
0
0
0
0
0
0
0
0
0
0
0
0
0
0
0
0
0
0
0
0.00184959976012
0
0.0165780477614
0
0.0456722804932
0
0.0884159013875
0
0.14375642064
0
0.210331171002
0
0.28650086117
0
0.370389940581
0
0.459932781686
0
0.552924542563
0
0.647075457437
0
0.740067218314
0
0.829610059419
0
0.91349913883
0
0.989668828998
0
1.05624357936
0
1.11158409861
0
1.15432771951
0
1.18342195224
1.19815040024
0
1.19815040024
0
1.18342195224
0
1.15432771951
0
1.11158409861
0
1.05624357936
0
0.989668828998
0
0.91349913883
0
0.829610059419
0
0.740067218314
0
0.647075457437
0
0.552924542563
0
0.459932781686
0
0.370389940581
0
0.28650086117
0
0.210331171002
0
0.14375642064
0
0.0884159013875
0
0.0456722804932
0
0.0165780477614
0
0.00184959976012
0
0
0
0
0
0
0
0
0
0
0
0
0
0
0
0
0
0
0
0
0
0
0
0
0
0
0
0
0
0
0
0
0
0
0
0
0
0
0
0
0
0
0
0
0
0
0
0
0
0
0
0
0
0
0
0
0
0
0
0
0
0
0
0
0
0
0
0
0
0
0
0
0
0
0
0
0
0
0
0
0
0.00184959976012
0
0.0165780477614
0
0.0456722804932
0
0.0884159013875
0
0.14375642064
0
0.210331171002
0
0.28650086117
0
0.370389940581
0
0.459932781686
0
0.552924542563
0
0.647075457437
0
0.740067218314
0
0.829610059419
0
0.91349913883
0
0.989668828998
0
1.05624357936
0
1.11158409861
0
1.15432771951
0
1.18342195224
1.19815040024
0
1.19815040024
0
1.18342195224
0
1.15432771951
0
1.11158409861
0
1.05624357936
0
0.989668828998
0
0.91349913883
0
0.829610059419
0
0.740067218314
0
0.647075457437
0
0.552924542563
0
0.459932781686
0
0.370389940581
0
0.28650086117
0
0.210331171002
0
0.14375642064
0
0.0884159013875
0
0.0456722804932
0
0.0165780477614
0
0.00184959976012
0
0
0
0
0
0
0
0
0
0
0
0
0
0
0
0
0
0
0
0
0
0
0
0
0
0
0
0
0
0
0
0
0
0
0
0
0
0
0
0
0
0
0
0
0
0
0
0
0
0
0
0
0
0
0
0
0
0
0
0
0
0
0
0
0
0
0
0
0
0
0
0
0
0
0
0
0
0
0
0
0
0.00184959976012
0
0.0165780477614
0
0.0456722804932
0
0.0884159013875
0
0.14375642064
0
0.210331171002
0
0.28650086117
0
0.370389940581
0
0.459932781686
0
0.552924542563
0
0.647075457437
0
0.740067218314
0
0.829610059419
0
0.91349913883
0
0.989668828998
0
1.05624357936
0
1.11158409861
0
1.15432771951
0
1.18342195224
1.19815040024
0
1.19815040024
0
1.18342195224
0
1.15432771951
0
1.11158409861
0
1.05624357936
0
0.989668828998
0
0.91349913883
0
0.829610059419
0
0.740067218314
0
0.647075457437
0
0.552924542563
0
0.459932781686
0
0.370389940581
0
0.28650086117
0
0.210331171002
0
0.14375642064
0
0.0884159013875
0
0.0456722804932
0
0.0165780477614
0
0.00184959976012
0
0
0
0
0
0
0
0
0
0
0
0
0
0
0
0
0
0
0
0
0
0
0
0
0
0
0
0
0
0
0
0
0
0
0
0
0
0
0
0
0
0
0
0
0
0
0
0
0
0
0
0
0
0
0
0
0
0
0
0
0
0
0
0
0
0
0
0
0
0
0
0
0
0
0
0
0
0
0
0
0
0.00184959976012
0
0.0165780477614
0
0.0456722804932
0
0.0884159013875
0
0.14375642064
0
0.210331171002
0
0.28650086117
0
0.370389940581
0
0.459932781686
0
0.552924542563
0
0.647075457437
0
0.740067218314
0
0.829610059419
0
0.91349913883
0
0.989668828998
0
1.05624357936
0
1.11158409861
0
1.15432771951
0
1.18342195224
1.19815040024
0
1.22751590799
0
1.21278745999
0
1.18369322726
0
1.14094960636
0
1.08560908711
0
1.01903433675
0
0.942864646578
0
0.858975567167
0
0.769432726062
0
0.676440965185
0
0.582290050312
0
0.489298289435
0
0.399755448329
0
0.315866368919
0
0.23969667875
0
0.173121928388
0
0.117781409136
0
0.0750377882415
0
0.0459435555096
0
0.0312151075084
0
0.0293655077482
0
0.0293655077482
0
0.0293655077482
0
0.0293655077482
0
0.0293655077482
0
0.0293655077482
0
0.0293655077482
0
0.0293655077482
0
0.0293655077482
0
0.0293655077482
0
0.0293655077482
0
0.0293655077482
0
0.0293655077482
0
0.0293655077482
0
0.0293655077482
0
0.0293655077482
0
0.0293655077482
0
0.0293655077482
0
0.0293655077482
0
0.0293655077482
0
0.0293655077482
0
0.0293655077482
0
0.0293655077482
0
0.0293655077482
0
0.0293655077482
0
0.0293655077482
0
0.0293655077482
0
0.0293655077482
0
0.0293655077482
0
0.0293655077482
0
0.0293655077482
0
0.0293655077482
0
0.0293655077482
0
0.0293655077482
0
0.0293655077482
0
0.0293655077482
0
0.0293655077482
0
0.0293655077482
0
0.0293655077482
0
0.0293655077482
0
0.0312151075084
0
0.0459435555096
0
0.0750377882415
0
0.117781409136
0
0.173121928388
0
0.23969667875
0
0.315866368919
0
0.399755448329
0
0.489298289435
0
0.582290050312
0
0.676440965185
0
0.769432726062
0
0.858975567167
0
0.942864646578
0
1.01903433675
0
1.08560908711
0
1.14094960636
0
1.18369322726
0
1.21278745999
1.22751590799
0
1.31273798775
0
1.29800953975
0
1.26891530702
0
1.22617168612
0
1.17083116687
0
1.10425641651
0
1.02808672634
0
0.944197646928
0
0.854654805822
0
0.761663044945
0
0.667512130072
0
0.574520369195
0
0.48497752809
0
0.401088448679
0
0.32491875851
0
0.258344008149
0
0.203003488896
0
0.160259868002
0
0.13116563527
0
0.116437187269
0
0.114587587509
0
0.114587587509
0
0.114587587509
0
0.114587587509
0
0.114587587509
0
0.114587587509
0
0.114587587509
0
0.114587587509
0
0.114587587509
0
0.114587587509
0
0.114587587509
0
0.114587587509
0
0.114587587509
0
0.114587587509
0
0.114587587509
0
0.114587587509
0
0.114587587509
0
0.114587587509
0
0.114587587509
0
0.114587587509
0
0.114587587509
0
0.114587587509
0
0.114587587509
0
0.114587587509
0
0.114587587509
0
0.114587587509
0
0.114587587509
0
0.114587587509
0
0.114587587509
0
0.114587587509
0
0.114587587509
0
0.114587587509
0
0.114587587509
0
0.114587587509
0
0.114587587509
0
0.114587587509
0
0.114587587509
0
0.114587587509
0
0.114587587509
0
0.114587587509
0
0.116437187269
0
0.13116563527
0
0.160259868002
0
0.203003488896
0
0.258344008149
0
0.32491875851
0
0.401088448679
0
0.48497752809
0
0.574520369195
0
0.667512130072
0
0.761663044945
0
0.854654805822
0
0.944197646928
0
1.02808672634
0
1.10425641651
0
1.17083116687
0
1.22617168612
0
1.26891530702
0
1.29800953975
1.31273798775
0
1.44547467404
0
1.43074622604
0
1.40165199331
0
1.35890837242
0
1.30356785316
0
1.2369931028
0
1.16082341263
0
1.07693433322
0
0.987391492116
0
0.894399731239
0
0.800248816366
0
0.707257055489
0
0.617714214384
0
0.533825134973
0
0.457655444804
0
0.391080694443
0
0.33574017519
0
0.292996554296
0
0.263902321564
0
0.249173873563
0
0.247324273803
0
0.247324273803
0
0.247324273803
0
0.247324273803
0
0.247324273803
0
0.247324273803
0
0.247324273803
0
0.247324273803
0
0.247324273803
0
0.247324273803
0
0.247324273803
0
0.247324273803
0
0.247324273803
0
0.247324273803
0
0.247324273803
0
0.247324273803
0
0.247324273803
0
0.247324273803
0
0.247324273803
0
0.247324273803
0
0.247324273803
0
0.247324273803
0
0.247324273803
0
0.247324273803
0
0.247324273803
0
0.247324273803
0
0.247324273803
0
0.247324273803
0
0.247324273803
0
0.247324273803
0
0.247324273803
0
0.247324273803
0
0.247324273803
0
0.247324273803
0
0.247324273803
0
0.247324273803
0
0.247324273803
0
0.247324273803
0
0.247324273803
0
0.247324273803
0
0.249173873563
0
0.263902321564
0
0.292996554296
0
0.33574017519
0
0.391080694443
0
0.457655444804
0
0.533825134973
0
0.617714214384
0
0.707257055489
0
0.800248816366
0
0.894399731239
0
0.987391492116
0
1.07693433322
0
1.16082341263
0
1.2369931028
0
1.30356785316
0
1.35890837242
0
1.40165199331
0
1.43074622604
1.44547467404
0
1.6127330329
0
1.5980045849
0
1.56891035217
0
1.52616673128
0
1.47082621202
0
1.40425146166
0
1.32808177149
0
1.24419269208
0
1.15464985098
0
1.0616580901
0
0.967507175227
0
0.874515414351
0
0.784972573245
0
0.701083493835
0
0.624913803666
0
0.558339053304
0
0.502998534052
0
0.460254913157
0
0.431160680426
0
0.416432232424
0
0.414582632664
0
0.414582632664
0
0.414582632664
0
0.414582632664
0
0.414582632664
0
0.414582632664
0
0.414582632664
0
0.414582632664
0
0.414582632664
0
0.414582632664
0
0.414582632664
0
0.414582632664
0
0.414582632664
0
0.414582632664
0
0.414582632664
0
0.414582632664
0
0.414582632664
0
0.414582632664
0
0.414582632664
0
0.414582632664
0
0.414582632664
0
0.414582632664
0
0.414582632664
0
0.414582632664
0
0.414582632664
0
0.414582632664
0
0.414582632664
0
0.414582632664
0
0.414582632664
0
0.414582632664
0
0.414582632664
0
0.414582632664
0
0.414582632664
0
0.414582632664
0
0.414582632664
0
0.414582632664
0
0.414582632664
0
0.414582632664
0
0.414582632664
0
0.414582632664
0
0.416432232424
0
0.431160680426
0
0.460254913157
0
0.502998534052
0
0.558339053304
0
0.624913803666
0
0.701083493835
0
0.784972573245
0
0.874515414351
0
0.967507175227
0
1.0616580901
0
1.15464985098
0
1.24419269208
0
1.32808177149
0
1.40425146166
0
1.47082621202
0
1.52616673128
0
1.56891035217
0
1.5980045849
1.6127330329
0
1.79814097556
0
1.78341252755
0
1.75431829482
0
1.71157467393
0
1.65623415468
0
1.58965940431
0
1.51348971415
0
1.42960063474
0
1.34005779363
0
1.24706603275
0
1.15291511788
0
1.059923357
0
0.970380515897
0
0.886491436487
0
0.810321746318
0
0.743746995956
0
0.688406476704
0
0.64566285581
0
0.616568623078
0
0.601840175076
0
0.599990575316
0
0.599990575316
0
0.599990575316
0
0.599990575316
0
0.599990575316
0
0.599990575316
0
0.599990575316
0
0.599990575316
0
0.599990575316
0
0.599990575316
0
0.599990575316
0
0.599990575316
0
0.599990575316
0
0.599990575316
0
0.599990575316
0
0.599990575316
0
0.599990575316
0
0.599990575316
0
0.599990575316
0
0.599990575316
0
0.599990575316
0
0.599990575316
0
0.599990575316
0
0.599990575316
0
0.599990575316
0
0.599990575316
0
0.599990575316
0
0.599990575316
0
0.599990575316
0
0.599990575316
0
0.599990575316
0
0.599990575316
0
0.599990575316
0
0.599990575316
0
0.599990575316
0
0.599990575316
0
0.599990575316
0
0.599990575316
0
0.599990575316
0
0.599990575316
0
0.601840175076
0
0.616568623078
0
0.64566285581
0
0.688406476704
0
0.743746995956
0
0.810321746318
0
0.886491436487
0
0.970380515897
0
1.059923357
0
1.15291511788
0
1.24706603275
0
1.34005779363
0
1.42960063474
0
1.51348971415
0
1.58965940431
0
1.65623415468
0
1.71157467393
0
1.75431829482
0
1.78341252755
1.79814097556
0
1.98354984074
0
1.96882139274
0
1.93972716001
0
1.89698353912
0
1.84164301986
0
1.7750682695
0
1.69889857933
0
1.61500949992
0
1.52546665882
0
1.43247489794
0
1.33832398307
0
1.24533222219
0
1.15578938108
0
1.07190030167
0
0.995730611506
0
0.929155861144
0
0.873815341891
0
0.831071720997
0
0.801977488265
0
0.787249040264
0
0.785399440504
0
0.785399440504
0
0.785399440504
0
0.785399440504
0
0.785399440504
0
0.785399440504
0
0.785399440504
0
0.785399440504
0
0.785399440504
0
0.785399440504
0
0.785399440504
0
0.785399440504
0
0.785399440504
0
0.785399440504
0
0.785399440504
0
0.785399440504
0
0.785399440504
0
0.785399440504
0
0.785399440504
0
0.785399440504
0
0.785399440504
0
0.785399440504
0
0.785399440504
0
0.785399440504
0
0.785399440504
0
0.785399440504
0
0.785399440504
0
0.785399440504
0
0.785399440504
0
0.785399440504
0
0.785399440504
0
0.785399440504
0
0.785399440504
0
0.785399440504
0
0.785399440504
0
0.785399440504
0
0.785399440504
0
0.785399440504
0
0.785399440504
0
0.785399440504
0
0.787249040264
0
0.801977488265
0
0.831071720997
0
0.873815341891
0
0.929155861144
0
0.995730611506
0
1.07190030167
0
1.15578938108
0
1.24533222219
0
1.33832398307
0
1.43247489794
0
1.52546665882
0
1.61500949992
0
1.69889857933
0
1.7750682695
0
1.84164301986
0
1.89698353912
0
1.93972716001
0
1.96882139274
1.98354984074
0
2.15081087691
0
2.13608242891
0
2.10698819618
0
2.06424457528
0
2.00890405603
0
1.94232930567
0
1.8661596155
0
1.78227053609
0
1.69272769498
0
1.59973593411
0
1.50558501923
0
1.41259325836
0
1.32305041725
0
1.23916133784
0
1.16299164767
0
1.09641689731
0
1.04107637806
0
0.998332757162
0
0.969238524431
0
0.954510076429
0
0.952660476669
0
0.952660476669
0
0.952660476669
0
0.952660476669
0
0.952660476669
0
0.952660476669
0
0.952660476669
0
0.952660476669
0
0.952660476669
0
0.952660476669
0
0.952660476669
0
0.952660476669
0
0.952660476669
0
0.952660476669
0
0.952660476669
0
0.952660476669
0
0.952660476669
0
0.952660476669
0
0.952660476669
0
0.952660476669
0
0.952660476669
0
0.952660476669
0
0.952660476669
0
0.952660476669
0
0.952660476669
0
0.952660476669
0
0.952660476669
0
0.952660476669
0
0.952660476669
0
0.952660476669
0
0.952660476669
0
0.952660476669
0
0.952660476669
0
0.952660476669
0
0.952660476669
0
0.952660476669
0
0.952660476669
0
0.952660476669
0
0.952660476669
0
0.952660476669
0
0.954510076429
0
0.969238524431
0
0.998332757162
0
1.04107637806
0
1.09641689731
0
1.16299164767
0
1.23916133784
0
1.32305041725
0
1.41259325836
0
1.50558501923
0
1.59973593411
0
1.69272769498
0
1.78227053609
0
1.8661596155
0
1.94232930567
0
2.00890405603
0
2.06424457528
0
2.10698819618
0
2.13608242891
2.15081087691
0
2.28355173321
0
2.26882328521
0
2.23972905247
0
2.19698543158
0
2.14164491233
0
2.07507016197
0
1.9989004718
0
1.91501139239
0
1.82546855128
0
1.7324767904
0
1.63832587553
0
1.54533411465
0
1.45579127355
0
1.37190219414
0
1.29573250397
0
1.22915775361
0
1.17381723436
0
1.13107361346
0
1.10197938073
0
1.08725093273
0
1.08540133297
0
1.08540133297
0
1.08540133297
0
1.08540133297
0
1.08540133297
0
1.08540133297
0
1.08540133297
0
1.08540133297
0
1.08540133297
0
1.08540133297
0
1.08540133297
0
1.08540133297
0
1.08540133297
0
1.08540133297
0
1.08540133297
0
1.08540133297
0
1.08540133297
0
1.08540133297
0
1.08540133297
0
1.08540133297
0
1.08540133297
0
1.08540133297
0
1.08540133297
0
1.08540133297
0
1.08540133297
0
1.08540133297
0
1.08540133297
0
1.08540133297
0
1.08540133297
0
1.08540133297
0
1.08540133297
0
1.08540133297
0
1.08540133297
0
1.08540133297
0
1.08540133297
0
1.08540133297
0
1.08540133297
0
1.08540133297
0
1.08540133297
0
1.08540133297
0
1.08725093273
0
1.10197938073
0
1.13107361346
0
1.17381723436
0
1.22915775361
0
1.29573250397
0
1.37190219414
0
1.45579127355
0
1.54533411465
0
1.63832587553
0
1.7324767904
0
1.82546855128
0
1.91501139239
0
1.9989004718
0
2.07507016197
0
2.14164491233
0
2.19698543158
0
2.23972905247
0
2.26882328521
2.28355173321
0
2.36877906749
0
2.35405061949
0
2.32495638676
0
2.28221276586
0
2.22687224661
0
2.16029749625
0
2.08412780608
0
2.00023872667
0
1.91069588557
0
1.81770412469
0
1.72355320981
0
1.63056144894
0
1.54101860783
0
1.45712952842
0
1.38095983825
0
1.31438508789
0
1.25904456864
0
1.21630094774
0
1.18720671501
0
1.17247826701
0
1.17062866725
0
1.17062866725
0
1.17062866725
0
1.17062866725
0
1.17062866725
0
1.17062866725
0
1.17062866725
0
1.17062866725
0
1.17062866725
0
1.17062866725
0
1.17062866725
0
1.17062866725
0
1.17062866725
0
1.17062866725
0
1.17062866725
0
1.17062866725
0
1.17062866725
0
1.17062866725
0
1.17062866725
0
1.17062866725
0
1.17062866725
0
1.17062866725
0
1.17062866725
0
1.17062866725
0
1.17062866725
0
1.17062866725
0
1.17062866725
0
1.17062866725
0
1.17062866725
0
1.17062866725
0
1.17062866725
0
1.17062866725
0
1.17062866725
0
1.17062866725
0
1.17062866725
0
1.17062866725
0
1.17062866725
0
1.17062866725
0
1.17062866725
0
1.17062866725
0
1.17247826701
0
1.18720671501
0
1.21630094774
0
1.25904456864
0
1.31438508789
0
1.38095983825
0
1.45712952842
0
1.54101860783
0
1.63056144894
0
1.72355320981
0
1.81770412469
0
1.91069588557
0
2.00023872667
0
2.08412780608
0
2.16029749625
0
2.22687224661
0
2.28221276586
0
2.32495638676
0
2.35405061949
2.36877906749
0
0
0
0
0
0
0
0
0
0
0
0
0
0
0
0
0
0
0
0
0
0
0
0
0
0
0
0
0
0
0
0
0
0
0
0
0
0
0
0
0
0
0
0
0
0
0
0
0
0
0
0
0
0
0
0
0
0
0
0
0
0
0
0
0
0
0
0
0
0
0
0
0
0
0
0
0
0
0
)
;

boundaryField
{
    left
    {
        type            calculated;
        value           uniform 0;
    }
    right
    {
        type            calculated;
        value           uniform 0;
    }
    ground
    {
        type            calculated;
        value           uniform 0;
    }
    top
    {
        type            calculated;
        value           uniform 0;
    }