FoamFile
{
    version         1.4;
    format          ascii;

    root            "";
    case            "";
    instance        "constant";
    local           "";

    class           dictionary;
    object          gmtDict;    
}

// How to plot
// Compulsory inputs
projection "X18c/9c";          // see man psxy for details on -J options
projection2D XY;                // either XY, XZ, YZ or latLon


// A list of the fields to plot with plotting details
FieldsToPlot
(
//  [fieldName plotType min max delta colorScale]
//  plotType is one of filledContours, solidContours, dashedContours, vectors,
//  vectorContours, mesh, meshPoints, meshCentres or rawValues

    [hDiff filledContours 0 0 0 "$GMTU/colours/red_white_blue.cpt"]

    [none mesh "grey"]
// for plotType vectors, the next numbers are the vector scale and then the
// stride to not plotting every vector
    [UDiff vectors 1e4 4 "black"]
);

// other options:

annotate "minMax 0 -0.01";

// non-global region (see man psxy for details on -R option)
// region "0/12e6/0/12e6";

// boundary ticks, annotation and grid
//     (see man psbasemap for detail on -B option)
boundaryMarks "a3e6/a3e6";

// should the legend be plotted separately on on the plot
//separateLegend true;

// For 3d plots, must give the patch to plot
//patch front;

