FoamFile {
    version     2.0;
    format      ascii;
    class       dictionary;
    location    "system";
    object      fvSchemes;
}

interpolationSchemes {
    default                 none;
    interpolate(T)          midPoint;
    interpolate(grad(Tf))   midPoint;
    interpolate(grad(Tf_0)) midPoint;
}

divSchemes {
    default         none;
}

gradSchemes {
    default         none;
}

laplacianSchemes {
    default         none;
}

ddtSchemes {
    default         none;
}

snGradSchemes
{
    default         none;
}

fluxRequired
{
    default         no;
}
