FoamFile {
    version     2.0;
    format      ascii;
    class       dictionary;
    location    "constant";
    object	setScalarOverOrographyDict;
}

type		schaerRadial;
centre      (-300e3 0 15e3);
halfWidth   (50e3 1 8e3);
