FoamFile
{
    version         2.3;
    format          ascii;

    root            "";
    case            "";
    instance        "constant";
    local           "";

    class           dictionary;
    object          gmtDict;
}

// How to plot
// Compulsory inputs
//projection "X18c/22.5c";
projection "X18c/18c";
projection2D XZ;

FieldsToPlot
(
    [waterLiquidFracDiff filledContours -1e-6 1e-6 5e-8 "$GMTU/colours/red_white_blue.cpt"]
);

//separateLegend true;
//region "-5000/5000/0/1.25e4";
annotate "minMax -1e3 -100";
//boundaryMarks "2500/2500";
plotBoundaryDots false;
