// The FOAM Project // File: controlDict
/*
-------------------------------------------------------------------------------
 =========         | dictionary
 \\      /         |
  \\    /          | Name:   controlDict
   \\  /           | Family: FoamX configuration file
    \\/            |
    F ield         | FOAM version: 2.3
    O peration     | Product of Nabla Ltd.
    A and          |
    M anipulation  | Email: Enquiries@Nabla.co.uk
-------------------------------------------------------------------------------
*/
// FoamX Case Dictionary.

FoamFile
{
    version         2.0;
    format          ascii;
    root            "/home/hilary/OpenFOAM/hilary-2.1.0/run/sphereMeshes/HRbucky";
    case            "4";
    instance        "system";
    local           "";

    class           dictionary;
    object          controlDict;
}

// * * * * * * * * * * * * * * * * * * * * * * * * * * * * * * * * * * * * * //


startFrom       startTime;

startTime      0;

stopAt          endTime;

endTime         432000; //259200;

deltaT          600;

writeControl    runTime;

writeInterval   432000;

cycleWrite      0;

writeFormat     binary;

writePrecision  6;

writeCompression uncompressed;

timeFormat      general;

timePrecision   9;

runTimeModifiable no;


// ************************************************************************* //
