FoamFile
{
    version         2.3;
    format          ascii;

    root            "";
    case            "";
    instance        "constant";
    local           "";

    class           dictionary;
    object          gmtDict;
}

// How to plot
// Compulsory inputs
projection "X12c/12c";
projection2D XZ;

FieldsToPlot
2
(
    [theta contours 300.2 304.2 0.2 "black"]
    [theta contours 296 299.8 0.2 "2pt,black,15:15:0"]
);

region "-6000/6000/0/12000";
boundaryMarks "2000/2000";
