FoamFile
{
    version         1.4;
    format          ascii;

    root            "";
    case            "";
    instance        "constant";
    local           "";

    class           dictionary;
    object          gmtDict;
}

// How to plot
// Compulsory inputs
projection "X18c/9c";
projection2D XZ;
plotPatch ground;

FieldsToPlot
(
    [Exner filledContours 0 0 0 "$GMTU/colours/white_blue_red.cpt"]
);

annotate "minMax 0.01 -0.005";
//region "-6000/6000/0/6000";
plotBoundaryDots false;

