FoamFile
{
    version         1.4;
    format          ascii;

    root            "";
    case            "";
    instance        "constant";
    local           "";

    class           dictionary;
    object          gmtDict;
}

// How to plot
// Compulsory inputs
projection "X18c/9c";
projection2D XZ;

FieldsToPlot
(
    [theta filledContours 0 0 0 "$GMTU/colours/white_blue_red.cpt"]
    [Uf    vectors  1e2 6 "black"]
);

region "-30e3/30e3/0/30e3";
boundaryMarks "5e3/5e3";
//separateLegend true;
plotBoundaryDots false;
annotate "minMax 0.01 -0.005";

