FoamFile
{
    version         2.3;
    format          ascii;

    root            "";
    case            "";
    instance        "constant";
    local           "";

    class           dictionary;
    object          gmtDict;
}

// How to plot
// Compulsory inputs
projection "X12c/12c";
projection2D XZ;

FieldsToPlot
1
(
    [none mesh "black"]
);

region "-5000/5000/2500/12500";
overlay true;
boundaryMarks "2500/2500";

