FoamFile
{
    version         2.3;
    format          ascii;

    root            "";
    case            "";
    instance        "constant";
    local           "";

    class           dictionary;
    object          gmtDict;
}

// How to plot
// Compulsory inputs
projection "X18c/18c";
projection2D XZ;

FieldsToPlot
(
    [none mesh "grey"]
    [Uf vectors 4.1 1 "black"]
);

region "-1000/1000/4e3/6e3";
boundaryMarks "1000/1000";
