FoamFile
{
    version         1.4;
    format          ascii;

    root            "";
    case            "";
    instance        "constant";
    local           "";

    class           dictionary;
    object          gmtDict;
}

// How to plot
// Compulsory inputs
projection "X18c/10c";
projection2D XZ;

FieldsToPlot
(
    [T filledContours -1.05 1.05 0.1 "$GMTU/colours/red_white_blue.cpt"]
);

region "-80e3/80e3/0/20000";
annotate "minMax -30e3 -300";
separateLegend false;
