/*--------------------------------*- C++ -*----------------------------------*\
| =========                 |                                                 |
| \\      /  F ield         | OpenFOAM: The Open Source CFD Toolbox           |
|  \\    /   O peration     | Version:  dev                                   |
|   \\  /    A nd           | Web:      www.OpenFOAM.org                      |
|    \\/     M anipulation  |                                                 |
\*---------------------------------------------------------------------------*/
FoamFile
{
    version     2.0;
    format      ascii;
    class       volScalarField;
    location    "constant";
    object      r;
}
// * * * * * * * * * * * * * * * * * * * * * * * * * * * * * * * * * * * * * //

dimensions      [0 1 0 0 0 0 0];

internalField   nonuniform List<scalar> 
2500
(
1775.05
1753.28
1732.17
1711.72
1691.98
1672.96
1654.69
1637.19
1620.49
1604.62
1589.59
1575.44
1562.18
1549.84
1538.44
1528.01
1518.55
1510.1
1502.66
1496.26
1490.91
1486.61
1483.37
1481.22
1480.14
1480.14
1481.22
1483.37
1486.61
1490.91
1496.26
1502.66
1510.1
1518.55
1528.01
1538.44
1549.84
1562.18
1575.44
1589.59
1604.62
1620.49
1637.19
1654.69
1672.96
1691.98
1711.72
1732.17
1753.28
1775.05
1741.84
1719.65
1698.12
1677.26
1657.11
1637.68
1619.01
1601.12
1584.05
1567.8
1552.42
1537.92
1524.34
1511.69
1500
1489.3
1479.59
1470.92
1463.28
1456.71
1451.21
1446.79
1443.47
1441.25
1440.14
1440.14
1441.25
1443.47
1446.79
1451.21
1456.71
1463.28
1470.92
1479.59
1489.3
1500
1511.69
1524.34
1537.92
1552.42
1567.8
1584.05
1601.12
1619.01
1637.68
1657.11
1677.26
1698.12
1719.65
1741.84
1708.92
1686.3
1664.33
1643.05
1622.47
1602.62
1583.54
1565.25
1547.77
1531.14
1515.39
1500.53
1486.61
1473.63
1461.64
1450.66
1440.69
1431.78
1423.94
1417.18
1411.52
1406.98
1403.57
1401.29
1400.14
1400.14
1401.29
1403.57
1406.98
1411.52
1417.18
1423.94
1431.78
1440.69
1450.66
1461.64
1473.63
1486.61
1500.53
1515.39
1531.14
1547.77
1565.25
1583.54
1602.62
1622.47
1643.05
1664.33
1686.3
1708.92
1676.31
1653.24
1630.83
1609.1
1588.08
1567.8
1548.29
1529.58
1511.69
1494.66
1478.51
1463.28
1449
1435.69
1423.38
1412.09
1401.86
1392.7
1384.63
1377.68
1371.86
1367.19
1363.67
1361.32
1360.15
1360.15
1361.32
1363.67
1367.19
1371.86
1377.68
1384.63
1392.7
1401.86
1412.09
1423.38
1435.69
1449
1463.28
1478.51
1494.66
1511.69
1529.58
1548.29
1567.8
1588.08
1609.1
1630.83
1653.24
1676.31
1644.02
1620.49
1597.62
1575.44
1553.96
1533.23
1513.27
1494.12
1475.8
1458.36
1441.8
1426.18
1411.52
1397.86
1385.21
1373.61
1363.08
1353.66
1345.36
1338.21
1332.22
1327.4
1323.78
1321.36
1320.15
1320.15
1321.36
1323.78
1327.4
1332.22
1338.21
1345.36
1353.66
1363.08
1373.61
1385.21
1397.86
1411.52
1426.18
1441.8
1458.36
1475.8
1494.12
1513.27
1533.23
1553.96
1575.44
1597.62
1620.49
1644.02
1612.08
1588.08
1564.74
1542.08
1520.13
1498.93
1478.51
1458.9
1440.14
1422.25
1405.28
1389.24
1374.19
1360.15
1347.15
1335.22
1324.39
1314.69
1306.14
1298.77
1292.59
1287.63
1283.9
1281.41
1280.16
1280.16
1281.41
1283.9
1287.63
1292.59
1298.77
1306.14
1314.69
1324.39
1335.22
1347.15
1360.15
1374.19
1389.24
1405.28
1422.25
1440.14
1458.9
1478.51
1498.93
1520.13
1542.08
1564.74
1588.08
1612.08
1580.51
1556.02
1532.19
1509.04
1486.61
1464.92
1444.02
1423.94
1404.71
1386.36
1368.94
1352.48
1337.01
1322.57
1309.2
1296.92
1285.77
1275.77
1266.96
1259.36
1253
1247.88
1244.03
1241.45
1240.16
1240.16
1241.45
1244.03
1247.88
1253
1259.36
1266.96
1275.77
1285.77
1296.92
1309.2
1322.57
1337.01
1352.48
1368.94
1386.36
1404.71
1423.94
1444.02
1464.92
1486.61
1509.04
1532.19
1556.02
1580.51
1549.32
1524.34
1500
1476.35
1453.41
1431.22
1409.82
1389.24
1369.53
1350.7
1332.82
1315.9
1300
1285.15
1271.38
1258.73
1247.24
1236.93
1227.84
1220
1213.42
1208.14
1204.16
1201.5
1200.17
1200.17
1201.5
1204.16
1208.14
1213.42
1220
1227.84
1236.93
1247.24
1258.73
1271.38
1285.15
1300
1315.9
1332.82
1350.7
1369.53
1389.24
1409.82
1431.22
1453.41
1476.35
1500
1524.34
1549.32
1518.55
1493.05
1468.2
1444.02
1420.56
1397.86
1375.94
1354.84
1334.62
1315.29
1296.92
1279.53
1263.17
1247.88
1233.69
1220.66
1208.8
1198.17
1188.78
1180.68
1173.88
1168.42
1164.3
1161.55
1160.17
1160.17
1161.55
1164.3
1168.42
1173.88
1180.68
1188.78
1198.17
1208.8
1220.66
1233.69
1247.88
1263.17
1279.53
1296.92
1315.29
1334.62
1354.84
1375.94
1397.86
1420.56
1444.02
1468.2
1493.05
1518.55
1488.22
1462.19
1436.8
1412.09
1388.09
1364.84
1342.39
1320.76
1300
1280.16
1261.27
1243.38
1226.54
1210.78
1196.16
1182.71
1170.47
1159.48
1149.78
1141.4
1134.37
1128.72
1124.46
1121.61
1120.18
1120.18
1121.61
1124.46
1128.72
1134.37
1141.4
1149.78
1159.48
1170.47
1182.71
1196.16
1210.78
1226.54
1243.38
1261.27
1280.16
1300
1320.76
1342.39
1364.84
1388.09
1412.09
1436.8
1462.19
1488.22
1458.36
1431.78
1405.84
1380.58
1356.02
1332.22
1309.2
1287.01
1265.7
1245.31
1225.89
1207.48
1190.13
1173.88
1158.79
1144.9
1132.25
1120.89
1110.86
1102.18
1094.9
1089.04
1084.62
1081.67
1080.19
1080.19
1081.67
1084.62
1089.04
1094.9
1102.18
1110.86
1120.89
1132.25
1144.9
1158.79
1173.88
1190.13
1207.48
1225.89
1245.31
1265.7
1287.01
1309.2
1332.22
1356.02
1380.58
1405.84
1431.78
1458.36
1428.99
1401.86
1375.35
1349.52
1324.39
1300
1276.4
1253.63
1231.75
1210.78
1190.8
1171.84
1153.95
1137.19
1121.61
1107.25
1094.17
1082.4
1072.01
1063.01
1055.46
1049.38
1044.8
1041.73
1040.19
1040.19
1041.73
1044.8
1049.38
1055.46
1063.01
1072.01
1082.4
1094.17
1107.25
1121.61
1137.19
1153.95
1171.84
1190.8
1210.78
1231.75
1253.63
1276.4
1300
1324.39
1349.52
1375.35
1401.86
1428.99
1400.14
1372.44
1345.36
1318.94
1293.21
1268.23
1244.03
1220.66
1198.17
1176.61
1156.03
1136.49
1118.03
1100.73
1084.62
1069.77
1056.22
1044.03
1033.25
1023.91
1016.07
1009.75
1004.99
1001.8
1000.2
1000.2
1001.8
1004.99
1009.75
1016.07
1023.91
1033.25
1044.03
1056.22
1069.77
1084.62
1100.73
1118.03
1136.49
1156.03
1176.61
1198.17
1220.66
1244.03
1268.23
1293.21
1318.94
1345.36
1372.44
1400.14
1371.86
1343.58
1315.9
1288.88
1262.54
1236.93
1212.11
1188.11
1164.99
1142.8
1121.61
1101.45
1082.4
1064.52
1047.85
1032.47
1018.43
1005.78
994.585
984.886
976.729
970.155
965.194
961.873
960.208
960.208
961.873
965.194
970.155
976.729
984.886
994.585
1005.78
1018.43
1032.47
1047.85
1064.52
1082.4
1101.45
1121.61
1142.8
1164.99
1188.11
1212.11
1236.93
1262.54
1288.88
1315.9
1343.58
1371.86
1344.17
1315.29
1287.01
1259.36
1232.4
1206.15
1180.68
1156.03
1132.25
1109.41
1087.57
1066.77
1047.09
1028.59
1011.34
995.389
980.816
967.678
956.033
945.939
937.443
930.591
925.419
921.954
920.217
920.217
921.954
925.419
930.591
937.443
945.939
956.033
967.678
980.816
995.389
1011.34
1028.59
1047.09
1066.77
1087.57
1109.41
1132.25
1156.03
1180.68
1206.15
1232.4
1259.36
1287.01
1315.29
1344.17
1317.12
1287.63
1258.73
1230.45
1202.83
1175.93
1149.78
1124.46
1100
1076.48
1053.94
1032.47
1012.13
992.975
975.09
958.541
943.398
929.731
917.606
907.083
898.22
891.067
885.664
882.043
880.227
880.227
882.043
885.664
891.067
898.22
907.083
917.606
929.731
943.398
958.541
975.09
992.975
1012.13
1032.47
1053.94
1076.48
1100
1124.46
1149.78
1175.93
1202.83
1230.45
1258.73
1287.63
1317.12
1290.74
1260.63
1231.1
1202.16
1173.88
1146.3
1119.46
1093.43
1068.27
1044.03
1020.78
998.599
977.548
957.706
939.149
921.954
906.201
891.964
879.318
868.332
859.069
851.587
845.931
842.14
840.238
840.238
842.14
845.931
851.587
859.069
868.332
879.318
891.964
906.201
921.954
939.149
957.706
977.548
998.599
1020.78
1044.03
1068.27
1093.43
1119.46
1146.3
1173.88
1202.16
1231.1
1260.63
1290.74
1265.07
1234.34
1204.16
1174.56
1145.6
1117.32
1089.77
1063.01
1037.11
1012.13
988.13
965.194
943.398
922.822
903.549
885.664
869.253
854.4
841.19
829.699
820
812.158
806.226
802.247
800.25
800.25
802.247
806.226
812.158
820
829.699
841.19
854.4
869.253
885.664
903.549
922.822
943.398
965.194
988.13
1012.13
1037.11
1063.01
1089.77
1117.32
1145.6
1174.56
1204.16
1234.34
1265.07
1240.16
1208.8
1177.96
1147.69
1118.03
1089.04
1060.75
1033.25
1006.58
980.816
956.033
932.309
909.725
888.369
868.332
849.706
832.586
817.068
803.243
791.202
781.025
772.787
766.551
762.365
760.263
760.263
762.365
766.551
772.787
781.025
791.202
803.243
817.068
832.586
849.706
868.332
888.369
909.725
932.309
956.033
980.816
1006.58
1033.25
1060.75
1089.04
1118.03
1147.69
1177.96
1208.8
1240.16
1216.06
1184.06
1152.56
1121.61
1091.24
1061.51
1032.47
1004.19
976.729
950.158
924.554
900
876.584
854.4
833.547
814.125
796.241
780
765.506
752.861
742.159
733.485
726.911
722.496
720.278
720.278
722.496
726.911
733.485
742.159
752.861
765.506
780
796.241
814.125
833.547
854.4
876.584
900
924.554
950.158
976.729
1004.19
1032.47
1061.51
1091.24
1121.61
1152.56
1184.06
1216.06
1192.81
1160.17
1128.01
1096.36
1065.27
1034.79
1004.99
975.91
947.629
920.217
893.756
868.332
844.038
820.975
799.25
778.974
760.263
743.236
728.011
714.703
703.42
694.262
687.314
682.642
680.294
680.294
682.642
687.314
694.262
703.42
714.703
728.011
743.236
760.263
778.974
799.25
820.975
844.038
868.332
893.756
920.217
947.629
975.91
1004.99
1034.79
1065.27
1096.36
1128.01
1160.17
1192.81
1170.47
1137.19
1104.36
1072.01
1040.19
1008.96
978.366
948.472
919.348
891.067
863.713
837.377
812.158
788.162
765.506
744.312
724.707
706.824
690.797
676.757
664.831
655.134
647.765
642.806
640.312
640.312
642.806
647.765
655.134
664.831
676.757
690.797
706.824
724.707
744.312
765.506
788.162
812.158
837.377
863.713
891.067
919.348
948.472
978.366
1008.96
1040.19
1072.01
1104.36
1137.19
1170.47
1149.09
1115.17
1081.67
1048.62
1016.07
984.073
952.68
921.954
891.964
862.786
834.506
807.217
781.025
756.042
732.393
710.211
689.638
670.82
653.911
639.062
626.418
616.117
608.276
602.993
600.333
600.333
602.993
608.276
616.117
626.418
639.062
653.911
670.82
689.638
710.211
732.393
756.042
781.025
807.217
834.506
862.786
891.964
921.954
952.68
984.073
1016.07
1048.62
1081.67
1115.17
1149.09
1128.72
1094.17
1060
1026.26
992.975
960.208
928.009
896.437
865.563
835.464
806.226
777.946
750.733
724.707
700
676.757
655.134
635.295
617.414
601.664
588.218
577.235
568.859
563.205
560.357
560.357
563.205
568.859
577.235
588.218
601.664
617.414
635.295
655.134
676.757
700
724.707
750.733
777.946
806.226
835.464
865.563
896.437
928.009
960.208
992.975
1026.26
1060
1094.17
1128.72
1109.41
1074.24
1039.42
1004.99
970.979
937.443
904.434
872.009
840.238
809.197
778.974
749.667
721.388
694.262
668.431
644.05
621.289
600.333
581.378
564.624
550.273
538.516
529.528
523.45
520.384
520.384
523.45
529.528
538.516
550.273
564.624
581.378
600.333
621.289
644.05
668.431
694.262
721.388
749.667
778.974
809.197
840.238
872.009
904.434
937.443
970.979
1004.99
1039.42
1074.24
1109.41
1091.24
1055.46
1020
984.886
950.158
915.86
882.043
848.764
816.088
784.092
752.861
722.496
693.109
664.831
637.809
612.209
588.218
566.039
545.894
528.015
512.64
500
490.306
483.735
480.416
480.416
483.735
490.306
500
512.64
528.015
545.894
566.039
588.218
612.209
637.809
664.831
693.109
722.496
752.861
784.092
816.088
848.764
882.043
915.86
950.158
984.886
1020
1055.46
1091.24
1074.24
1037.88
1001.8
966.023
930.591
895.545
860.93
826.801
793.221
760.263
728.011
696.563
666.033
636.553
608.276
581.378
556.058
532.541
511.077
491.935
475.395
461.736
451.221
444.072
440.454
440.454
444.072
451.221
461.736
475.395
491.935
511.077
532.541
556.058
581.378
608.276
636.553
666.033
696.563
728.011
760.263
793.221
826.801
860.93
895.545
930.591
966.023
1001.8
1037.88
1074.24
1058.49
1021.57
984.886
948.472
912.36
876.584
841.19
806.226
771.751
737.835
704.557
672.012
640.312
609.59
580
551.725
524.976
500
477.074
456.508
438.634
423.792
412.311
404.475
400.5
400.5
404.475
412.311
423.792
438.634
456.508
477.074
500
524.976
551.725
580
609.59
640.312
672.012
704.557
737.835
771.751
806.226
841.19
876.584
912.36
948.472
984.886
1021.57
1058.49
1044.03
1006.58
969.33
932.309
895.545
859.069
822.922
787.147
751.798
716.938
682.642
648.999
616.117
584.123
553.173
523.45
495.177
468.615
444.072
421.9
402.492
386.264
373.631
364.966
360.555
360.555
364.966
373.631
386.264
402.492
421.9
444.072
468.615
495.177
523.45
553.173
584.123
616.117
648.999
682.642
716.938
751.798
787.147
822.922
859.069
895.545
932.309
969.33
1006.58
1044.03
1030.92
992.975
955.196
917.606
880.227
843.09
806.226
769.675
733.485
697.711
662.42
627.694
593.633
560.357
528.015
496.79
466.905
438.634
412.311
388.33
367.151
349.285
335.261
325.576
320.624
320.624
325.576
335.261
349.285
367.151
388.33
412.311
438.634
466.905
496.79
528.015
560.357
593.633
627.694
662.42
697.711
733.485
769.675
806.226
843.09
880.227
917.606
955.196
992.975
1030.92
1019.22
980.816
942.55
904.434
866.487
828.734
791.202
753.923
716.938
680.294
644.05
608.276
573.062
538.516
504.777
472.017
440.454
410.366
382.099
356.09
332.866
313.05
297.321
286.356
280.713
280.713
286.356
297.321
313.05
332.866
356.09
382.099
410.366
440.454
472.017
504.777
538.516
573.062
608.276
644.05
680.294
716.938
753.923
791.202
828.734
866.487
904.434
942.55
980.816
1019.22
1008.96
970.155
931.45
892.861
854.4
816.088
777.946
740
702.282
664.831
627.694
590.931
554.617
518.845
483.735
449.444
416.173
384.187
353.836
325.576
300
277.849
260
247.386
240.832
240.832
247.386
260
277.849
300
325.576
353.836
384.187
416.173
449.444
483.735
518.845
554.617
590.931
627.694
664.831
702.282
740
777.946
816.088
854.4
892.861
931.45
970.155
1008.96
1000.2
961.041
921.954
882.95
844.038
805.233
766.551
728.011
689.638
651.46
613.514
575.847
538.516
501.597
465.188
429.418
394.462
360.555
328.024
297.321
269.072
244.131
223.607
208.806
200.998
200.998
208.806
223.607
244.131
269.072
297.321
328.024
360.555
394.462
429.418
465.188
501.597
538.516
575.847
613.514
651.46
689.638
728.011
766.551
805.233
844.038
882.95
921.954
961.041
1000.2
992.975
953.52
914.112
874.757
835.464
796.241
757.1
718.053
679.117
640.312
601.664
563.205
524.976
487.032
449.444
412.311
375.766
340
305.287
272.029
240.832
212.603
188.68
170.88
161.245
161.245
170.88
188.68
212.603
240.832
272.029
305.287
340
375.766
412.311
449.444
487.032
524.976
563.205
601.664
640.312
679.117
718.053
757.1
796.241
835.464
874.757
914.112
953.52
992.975
987.32
947.629
907.965
868.332
828.734
789.177
749.667
710.211
670.82
631.506
592.284
553.173
514.198
475.395
436.807
398.497
360.555
323.11
286.356
250.599
216.333
184.391
156.205
134.164
121.655
121.655
134.164
156.205
184.391
216.333
250.599
286.356
323.11
360.555
398.497
436.807
475.395
514.198
553.173
592.284
631.506
670.82
710.211
749.667
789.177
828.734
868.332
907.965
947.629
987.32
983.26
943.398
903.549
863.713
823.893
784.092
744.312
704.557
664.831
625.14
585.491
545.894
506.36
466.905
427.551
388.33
349.285
310.483
272.029
234.094
196.977
161.245
128.062
100
82.4621
82.4621
100
128.062
161.245
196.977
234.094
272.029
310.483
349.285
388.33
427.551
466.905
506.36
545.894
585.491
625.14
664.831
704.557
744.312
784.092
823.893
863.713
903.549
943.398
983.26
980.816
940.851
900.888
860.93
820.975
781.025
741.08
701.142
661.211
621.289
581.378
541.479
501.597
461.736
421.9
382.099
342.345
302.655
263.059
223.607
184.391
145.602
107.703
72.111
44.7214
44.7214
72.111
107.703
145.602
184.391
223.607
263.059
302.655
342.345
382.099
421.9
461.736
501.597
541.479
581.378
621.289
661.211
701.142
741.08
781.025
820.975
860.93
900.888
940.851
980.816
980
940
900
860
820
780
740
700
660
620
580
540
500
460
420
380
340
300
260
220
180
140
100
60
20
20
60
100
140
180
220
260
300
340
380
420
460
500
540
580
620
660
700
740
780
820
860
900
940
980
980.816
940.851
900.888
860.93
820.975
781.025
741.08
701.142
661.211
621.289
581.378
541.479
501.597
461.736
421.9
382.099
342.345
302.655
263.059
223.607
184.391
145.602
107.703
72.111
44.7214
44.7214
72.111
107.703
145.602
184.391
223.607
263.059
302.655
342.345
382.099
421.9
461.736
501.597
541.479
581.378
621.289
661.211
701.142
741.08
781.025
820.975
860.93
900.888
940.851
980.816
983.26
943.398
903.549
863.713
823.893
784.092
744.312
704.557
664.831
625.14
585.491
545.894
506.36
466.905
427.551
388.33
349.285
310.483
272.029
234.094
196.977
161.245
128.062
100
82.4621
82.4621
100
128.062
161.245
196.977
234.094
272.029
310.483
349.285
388.33
427.551
466.905
506.36
545.894
585.491
625.14
664.831
704.557
744.312
784.092
823.893
863.713
903.549
943.398
983.26
987.32
947.629
907.965
868.332
828.734
789.177
749.667
710.211
670.82
631.506
592.284
553.173
514.198
475.395
436.807
398.497
360.555
323.11
286.356
250.599
216.333
184.391
156.205
134.164
121.655
121.655
134.164
156.205
184.391
216.333
250.599
286.356
323.11
360.555
398.497
436.807
475.395
514.198
553.173
592.284
631.506
670.82
710.211
749.667
789.177
828.734
868.332
907.965
947.629
987.32
992.975
953.52
914.112
874.757
835.464
796.241
757.1
718.053
679.117
640.312
601.664
563.205
524.976
487.032
449.444
412.311
375.766
340
305.287
272.029
240.832
212.603
188.68
170.88
161.245
161.245
170.88
188.68
212.603
240.832
272.029
305.287
340
375.766
412.311
449.444
487.032
524.976
563.205
601.664
640.312
679.117
718.053
757.1
796.241
835.464
874.757
914.112
953.52
992.975
1000.2
961.041
921.954
882.95
844.038
805.233
766.551
728.011
689.638
651.46
613.514
575.847
538.516
501.597
465.188
429.418
394.462
360.555
328.024
297.321
269.072
244.131
223.607
208.806
200.998
200.998
208.806
223.607
244.131
269.072
297.321
328.024
360.555
394.462
429.418
465.188
501.597
538.516
575.847
613.514
651.46
689.638
728.011
766.551
805.233
844.038
882.95
921.954
961.041
1000.2
1008.96
970.155
931.45
892.861
854.4
816.088
777.946
740
702.282
664.831
627.694
590.931
554.617
518.845
483.735
449.444
416.173
384.187
353.836
325.576
300
277.849
260
247.386
240.832
240.832
247.386
260
277.849
300
325.576
353.836
384.187
416.173
449.444
483.735
518.845
554.617
590.931
627.694
664.831
702.282
740
777.946
816.088
854.4
892.861
931.45
970.155
1008.96
1019.22
980.816
942.55
904.434
866.487
828.734
791.202
753.923
716.938
680.294
644.05
608.276
573.062
538.516
504.777
472.017
440.454
410.366
382.099
356.09
332.866
313.05
297.321
286.356
280.713
280.713
286.356
297.321
313.05
332.866
356.09
382.099
410.366
440.454
472.017
504.777
538.516
573.062
608.276
644.05
680.294
716.938
753.923
791.202
828.734
866.487
904.434
942.55
980.816
1019.22
1030.92
992.975
955.196
917.606
880.227
843.09
806.226
769.675
733.485
697.711
662.42
627.694
593.633
560.357
528.015
496.79
466.905
438.634
412.311
388.33
367.151
349.285
335.261
325.576
320.624
320.624
325.576
335.261
349.285
367.151
388.33
412.311
438.634
466.905
496.79
528.015
560.357
593.633
627.694
662.42
697.711
733.485
769.675
806.226
843.09
880.227
917.606
955.196
992.975
1030.92
1044.03
1006.58
969.33
932.309
895.545
859.069
822.922
787.147
751.798
716.938
682.642
648.999
616.117
584.123
553.173
523.45
495.177
468.615
444.072
421.9
402.492
386.264
373.631
364.966
360.555
360.555
364.966
373.631
386.264
402.492
421.9
444.072
468.615
495.177
523.45
553.173
584.123
616.117
648.999
682.642
716.938
751.798
787.147
822.922
859.069
895.545
932.309
969.33
1006.58
1044.03
1058.49
1021.57
984.886
948.472
912.36
876.584
841.19
806.226
771.751
737.835
704.557
672.012
640.312
609.59
580
551.725
524.976
500
477.074
456.508
438.634
423.792
412.311
404.475
400.5
400.5
404.475
412.311
423.792
438.634
456.508
477.074
500
524.976
551.725
580
609.59
640.312
672.012
704.557
737.835
771.751
806.226
841.19
876.584
912.36
948.472
984.886
1021.57
1058.49
1074.24
1037.88
1001.8
966.023
930.591
895.545
860.93
826.801
793.221
760.263
728.011
696.563
666.033
636.553
608.276
581.378
556.058
532.541
511.077
491.935
475.395
461.736
451.221
444.072
440.454
440.454
444.072
451.221
461.736
475.395
491.935
511.077
532.541
556.058
581.378
608.276
636.553
666.033
696.563
728.011
760.263
793.221
826.801
860.93
895.545
930.591
966.023
1001.8
1037.88
1074.24
1091.24
1055.46
1020
984.886
950.158
915.86
882.043
848.764
816.088
784.092
752.861
722.496
693.109
664.831
637.809
612.209
588.218
566.039
545.894
528.015
512.64
500
490.306
483.735
480.416
480.416
483.735
490.306
500
512.64
528.015
545.894
566.039
588.218
612.209
637.809
664.831
693.109
722.496
752.861
784.092
816.088
848.764
882.043
915.86
950.158
984.886
1020
1055.46
1091.24
)
;

boundaryField
{
    top
    {
        type            cyclic;
    }
    inlet
    {
        type            cyclic;
    }
    outlet
    {
        type            cyclic;
    }
    ground
    {
        type            cyclic;
    }
    front
    {
        type            empty;
    }
    back
    {
        type            empty;
    }
}


// ************************************************************************* //
