// dummy file to placate paraView
FoamFile {
    version     2.0;
    format      ascii;
    class       dictionary;
    location    "system";
    object      fvSchemes;
}

ddtSchemes {
    default         Euler;
}

interpolationSchemes {
    default         linear;
}

divSchemes {
    default         Gauss linearUpwind linearUpwind;
}

gradSchemes {
    default         Gauss linear;
}

laplacianSchemes {
    default         Gauss linear corrected;
}

snGradSchemes
{
    default         corrected;
}

fluxRequired
{
    default         no;
    Exner;
}
