FoamFile
{
    version         1.4;
    format          ascii;

    root            "";
    case            "";
    instance        "constant";
    local           "";

    class           dictionary;
    object          gmtDict;
}

// How to plot
// Compulsory inputs
projection "X18c/18c";
projection2D XY;

FieldsToPlot
(
    [buoyant.hSigma filledContours 8.6e3 10.1e3 100 "$GMTU/colours/white_colour_white.cpt"]
    [buoyant.Uf vectors 1e4 1 "black"]
);

plotBoundaryDots false;
annotate "minMax 0 -38000";

