FoamFile
{
    version         2.3;
    format          ascii;

    root            "";
    case            "";
    instance        "constant";
    local           "";

    class           dictionary;
    object          gmtDict;
}

// How to plot
// Compulsory inputs
projection "X18c/18c";
projection2D XZ;

FieldsToPlot
(
    [buoyant.theta filledContours 297.95 302.05 0.2 "$GMTU/colours/red_white_blue.cpt"]
    [stable.theta contours 297.95 302.05 0.2 "black"]
    [stable.Uf vectors 100 13 "black"]
    [buoyant.Uf vectors 100 13 "blue"]
);

//separateLegend true;
//region "-5000/5000/0/1.25e4";
annotate "minMax -1.2e3 400";
boundaryMarks "2500/2500";
plotBoundaryDots false;

