FoamFile
{
    version         2.3;
    format          ascii;

    root            "";
    case            "";
    instance        "constant";
    local           "";

    class           dictionary;
    object          gmtDict;
}

// How to plot
// Compulsory inputs
projection "X18c/12c";
projection2D XZ;

FieldsToPlot
1
(
    [divU filledContours 0 0 0 "$GMTU/colours/red_white_blue.cpt"]
//    [dVdt rawValues 0 0 0 "$GMTU/colours/red_white_blue.cpt"]
);

//separateLegend true;
//region "-2e3/2e3/3e3/6e3";
annotate "minMax 0 0";

