FoamFile
{
    version         2.3;
    format          ascii;

    root            "";
    case            "";
    instance        "constant";
    local           "";

    class           dictionary;
    object          gmtDict;
}

// How to plot
// Compulsory inputs
projection "X15c/15c";
projection2D XZ;

FieldsToPlot
(
    [theta filledContours 290 330 2.5 "$GMTU/colours/red_white_blue.cpt"]
    [Uf vectors 100 13 "black"]
);

separateLegend true;
region "-5000/5000/0/10e3";
annotate "minMax -5e3 -1e3";//1.7e3";
boundaryMarks "2500/2500";

