FoamFile
{
    version         2.3;
    format          ascii;

    root            "";
    case            "";
    instance        "constant";
    local           "";

    class           dictionary;
    object          gmtDict;
}

// How to plot
// Compulsory inputs
projection "X12c/12c";
projection2D XZ;

FieldsToPlot
2
(
    [thetae contours 320.5 328.5 0.5 "black"]
    [thetae contours 316 318.5 0.5 "2pt,black,15:15:0"]
);

region "-6000/6000/0/10000";
boundaryMarks "2000/2000";
