FoamFile
{
    version         2.3;
    format          ascii;

    root            "";
    case            "";
    instance        "constant";
    local           "";

    class           dictionary;
    object          gmtDict;
}

// How to plot
// Compulsory inputs
projection "X12c/15c";
projection2D XZ;

FieldsToPlot
4
(
    [theta filledContours 297.95 302.05 0.1 "$GMTU/colours/red_white_blue.cpt"]
//    [Uf vectors 100 41 "black"]
    [Uf vectors 25 13 "black"]
    [Ufz contours 0 30 2 "1p,black"]
    [Ufz contours -30 -2 2 "1p,black,15_15:0"]
);

separateLegend true;
region "-5000/5000/0/12500";
annotate "minMax -5e3 -1e3";//1.7e3";
boundaryMarks "2500/2500";

