FoamFile
{
    version         1.4;
    format          ascii;

    root            "";
    case            "";
    instance        "constant";
    local           "";

    class           dictionary;
    object          gmtDict;
}

// How to plot
// Compulsory inputs
projection "X18c/6c";
projection2D XY;
plotBoundaryDots false;

FieldsToPlot
(
    [monitor filledContours 1 4 0.25 "$GMTU/colours/white_blue_red.cpt"]
    [none mesh "grey"]
    [Uf vectors 1e4 11 "black"]
);

// Options
annotate "minMax 0 -38000";

