/*---------------------------------------------------------------------------*| =========                 |                                                 |
| \      /  F ield         | OpenFOAM: The Open Source CFD Toolbox           |
|  \    /   O peration     | Version:  1.4                                   |
|   \  /    A nd           | Web:      http://www.openfoam.org               |
|    \/     M anipulation  |                                                 |
\*---------------------------------------------------------------------------*/

FoamFile
{
    version         2.0;
    format          ascii;

    root            "";
    case            "";
    instance        "";
    local           "";

    class           dictionary;
    object          fvSchemes;
}

// * * * * * * * * * * * * * * * * * * * * * * * * * * * * * * * * * * * * * //

ddtSchemes
{
    default Euler;
}

gradSchemes
{
    default         none;
    grad(phiBar)    Gauss linear;
    grad(phi)       Gauss linear;
    grad(Phi)       Gauss linear;
}

divSchemes
{
    default             none;
    div((magSf*sngradc_m),phi) Gauss upwind;
    div(sngradc_m,phi) Gauss upwind;
}

laplacianSchemes
{
    default     Gauss linear uncorrected;
    laplacian(Phi) Gauss linear uncorrected;
    laplacian(phiBar) Gauss linear uncorrected;
    laplacian(c_m) Gauss linear uncorrected;
    laplacian(matrixA,Psi) Gauss linear uncorrected;
    laplacian(matrixA,Phi) Gauss linear uncorrected;
    laplacian(sqr((1|deltaCoeffs)),monitorNew) Gauss linear uncorrected;
}

interpolationSchemes
{
    default        linear;
    interpolate(gradPhi) linear;
    interpolate(gradPhi) linear;
    interpolate(grad(Psi))  linear;
    interpolate(grad(Phi))  linear;
}

snGradSchemes
{
    default         none;
    snGrad(phiBar)     uncorrected;
    snGrad(Phi)     uncorrected;
    snGrad(c_m) uncorrected;
    snGrad(((domainIntegrate(detHess)|domainIntegrate((1|monitorNew)))|monitorR)) uncorrected;
}

fluxRequired
{
    default         no;
}


// ************************************************************************* //
